/*---------------------------------------------------------------------------*\
| =========                 |                                                 |
| \\      /  F ield         | OpenFOAM: The Open Source CFD Toolbox           |
|  \\    /   O peration     | Version:  dev.feature-ACMI                      |
|   \\  /    A nd           | Web:      www.OpenFOAM.org                      |
|    \\/     M anipulation  |                                                 |
\*---------------------------------------------------------------------------*/
Build  : dev.feature-ACMI-c8ff51b887b2
Exec   : /home/mattijs/OpenFOAM/mattijs-dev.feature-ACMI/platforms/linux64GccDPInt32Opt/bin/Test-coupledFvPatch
Date   : May 02 2016
Time   : 19:58:01
Host   : "bb"
PID    : 9356
Case   : /home/mattijs/OpenFOAM/mattijs-extensions/applications/test/coupledFvPatch/testMatching/pipeCyclic
nProcs : 1
sigFpe : Enabling floating point exception trapping (FOAM_SIGFPE).
SetNaN : Initialising allocated memory to NaN (FOAM_SETNAN).
fileModificationChecking : Monitoring run-time modified files using timeStampMaster
allowSystemOperations : Allowing user-supplied system call operations

// * * * * * * * * * * * * * * * * * * * * * * * * * * * * * * * * * * * * * //
Create time

Overriding DebugSwitches according to controlDict
    globalIndexAndTransform 1;

Create mesh for time = 0

Determined global transforms :
		translation	rotation
	0	(0 0 0)	(1 0 0 0 0 1 0 -1 0)

	patch	transform	sign
	side1	0	1
	side2	0	-1

Permutations of transformations:
		translation	rotation
	0	(0 0 0)	(1 0 0 0 0 -1 0 1 0)
	1	(0 0 0)	---
	2	(0 0 0)	(1 0 0 0 0 1 0 -1 0)
nullTransformIndex:1

Determined global transforms :
		translation	rotation
	0	(0 0 0)	(1 0 0 0 0 1 0 -1 0)

	patch	transform	sign
	side1	0	1
	side2	0	-1

Permutations of transformations:
		translation	rotation
	0	(0 0 0)	(1 0 0 0 0 -1 0 1 0)
	1	(0 0 0)	---
	2	(0 0 0)	(1 0 0 0 0 1 0 -1 0)
nullTransformIndex:1

[globalMeshData.C:591] myData.size() 8
[globalMeshData.C:592] slaves.size() 6
[globalMeshData.C:593] transformedSlaves.size() 6
start of distributed myData:
point:0
at:(0 0 0)
procI:0
transformI:1

point:1
at:(1 0 0)
procI:0
transformI:1

point:2
at:(1 -0.353553 0.353553)
procI:0
transformI:1

point:3
at:(0 -0.353553 0.353553)
procI:0
transformI:1

point:4
at:(0 0.353553 0.353553)
procI:0
transformI:1

point:5
at:(1 0.353553 0.353553)
procI:0
transformI:1

point:5
at:(1 0.353553 0.353553)
procI:0
transformI:1

point:4
at:(0 0.353553 0.353553)
procI:0
transformI:1

end of distributed myData
** on master:
Connected:
    point:0
    at:(0 0 0)
    procI:0
    transformI:1


Connected:
    point:1
    at:(1 0 0)
    procI:0
    transformI:1


Connected:
    point:2
    at:(1 -0.353553 0.353553)
    procI:0
    transformI:1

    point:5
    at:(1 0.353553 0.353553)
    procI:0
    transformI:0


Connected:
    point:3
    at:(0 -0.353553 0.353553)
    procI:0
    transformI:1

    point:4
    at:(0 0.353553 0.353553)
    procI:0
    transformI:0


Connected:
    point:4
    at:(0 0.353553 0.353553)
    procI:0
    transformI:1


Connected:
    point:5
    at:(1 0.353553 0.353553)
    procI:0
    transformI:1


Connected:
    point:2
    at:(1 -0.353553 0.353553)
    procI:0
    transformI:1

    point:5
    at:(1 0.353553 0.353553)
    procI:0
    transformI:0


Connected:
    point:3
    at:(0 -0.353553 0.353553)
    procI:0
    transformI:1

    point:4
    at:(0 0.353553 0.353553)
    procI:0
    transformI:0


** end of master:
[globalMeshData.C:933] allPointConnectivity 
6
(
1((0 1))
1(2{1})
2((2 1) (5 0))
2((3 1) (4 0))
2((3 1) (4 0))
2((2 1) (5 0))
)

point:0 at:(0 0 0) connected to:
    point:0
    at:(0 0 0)
    procI:0
    transformI:1


point:1 at:(1 0 0) connected to:
    point:1
    at:(1 0 0)
    procI:0
    transformI:1


point:2 at:(1 -0.353553 0.353553) connected to:
    point:2
    at:(1 -0.353553 0.353553)
    procI:0
    transformI:1

    point:5
    at:(1 0.353553 0.353553)
    procI:0
    transformI:0


point:3 at:(0 -0.353553 0.353553) connected to:
    point:3
    at:(0 -0.353553 0.353553)
    procI:0
    transformI:1

    point:4
    at:(0 0.353553 0.353553)
    procI:0
    transformI:0


point:4 at:(0 0.353553 0.353553) connected to:
    point:3
    at:(0 -0.353553 0.353553)
    procI:0
    transformI:1

    point:4
    at:(0 0.353553 0.353553)
    procI:0
    transformI:0


point:5 at:(1 0.353553 0.353553) connected to:
    point:2
    at:(1 -0.353553 0.353553)
    procI:0
    transformI:1

    point:5
    at:(1 0.353553 0.353553)
    procI:0
    transformI:0


[globalMeshData.C:962] globalPointEdges 
6
(
3(0 3 4)
3(0 1 6)
4(1 2 5 6)
4(2 3 4 5)
4(2 3 4 5)
4(1 2 5 6)
)

[globalMeshData.C:963] globalPointPoints 
6
(
3(2{1} (3 1) (4 1))
3((0 1) (2 1) (5 1))
4(2{1} (3 1) (4 0) (1 0))
4((2 1) (0 1) 2{0} (5 0))
4((2 1) (0 1) 2{0} (5 0))
4(2{1} (3 1) (4 0) (1 0))
)

point:0 at:(0 0 0)
Connected:
    point:1
    at:(1 0 0)
    procI:0
    transformI:1

    edge:0
    start:0 at:(0 0 0)
    end  :1 at:(1 0 0)

    point:3
    at:(0 -0.353553 0.353553)
    procI:0
    transformI:1

    edge:3
    start:3 at:(0 -0.353553 0.353553)
    end  :0 at:(0 0 0)

    point:4
    at:(0 0.353553 0.353553)
    procI:0
    transformI:1

    edge:4
    start:0 at:(0 0 0)
    end  :4 at:(0 0.353553 0.353553)


point:1 at:(1 0 0)
Connected:
    point:0
    at:(0 0 0)
    procI:0
    transformI:1

    edge:0
    start:0 at:(0 0 0)
    end  :1 at:(1 0 0)

    point:2
    at:(1 -0.353553 0.353553)
    procI:0
    transformI:1

    edge:1
    start:1 at:(1 0 0)
    end  :2 at:(1 -0.353553 0.353553)

    point:5
    at:(1 0.353553 0.353553)
    procI:0
    transformI:1

    edge:6
    start:5 at:(1 0.353553 0.353553)
    end  :1 at:(1 0 0)


point:2 at:(1 -0.353553 0.353553)
Connected:
    point:1
    at:(1 0 0)
    procI:0
    transformI:1

    edge:1
    start:1 at:(1 0 0)
    end  :2 at:(1 -0.353553 0.353553)

    point:3
    at:(0 -0.353553 0.353553)
    procI:0
    transformI:1

    edge:2
    start:2 at:(1 -0.353553 0.353553)
    end  :3 at:(0 -0.353553 0.353553)

    point:4
    at:(0 0.353553 0.353553)
    procI:0
    transformI:0

    edge:5
    start:4 at:(0 0.353553 0.353553)
    end  :5 at:(1 0.353553 0.353553)

    point:1
    at:(1 0 0)
    procI:0
    transformI:0

    edge:6
    start:5 at:(1 0.353553 0.353553)
    end  :1 at:(1 0 0)


point:3 at:(0 -0.353553 0.353553)
Connected:
    point:2
    at:(1 -0.353553 0.353553)
    procI:0
    transformI:1

    edge:2
    start:2 at:(1 -0.353553 0.353553)
    end  :3 at:(0 -0.353553 0.353553)

    point:0
    at:(0 0 0)
    procI:0
    transformI:1

    edge:3
    start:3 at:(0 -0.353553 0.353553)
    end  :0 at:(0 0 0)

    point:0
    at:(0 0 0)
    procI:0
    transformI:0

    edge:4
    start:0 at:(0 0 0)
    end  :4 at:(0 0.353553 0.353553)

    point:5
    at:(1 0.353553 0.353553)
    procI:0
    transformI:0

    edge:5
    start:4 at:(0 0.353553 0.353553)
    end  :5 at:(1 0.353553 0.353553)


point:4 at:(0 0.353553 0.353553)
Connected:
    point:2
    at:(1 -0.353553 0.353553)
    procI:0
    transformI:1

    edge:2
    start:2 at:(1 -0.353553 0.353553)
    end  :3 at:(0 -0.353553 0.353553)

    point:0
    at:(0 0 0)
    procI:0
    transformI:1

    edge:3
    start:3 at:(0 -0.353553 0.353553)
    end  :0 at:(0 0 0)

    point:0
    at:(0 0 0)
    procI:0
    transformI:0

    edge:4
    start:0 at:(0 0 0)
    end  :4 at:(0 0.353553 0.353553)

    point:5
    at:(1 0.353553 0.353553)
    procI:0
    transformI:0

    edge:5
    start:4 at:(0 0.353553 0.353553)
    end  :5 at:(1 0.353553 0.353553)


point:5 at:(1 0.353553 0.353553)
Connected:
    point:1
    at:(1 0 0)
    procI:0
    transformI:1

    edge:1
    start:1 at:(1 0 0)
    end  :2 at:(1 -0.353553 0.353553)

    point:3
    at:(0 -0.353553 0.353553)
    procI:0
    transformI:1

    edge:2
    start:2 at:(1 -0.353553 0.353553)
    end  :3 at:(0 -0.353553 0.353553)

    point:4
    at:(0 0.353553 0.353553)
    procI:0
    transformI:0

    edge:5
    start:4 at:(0 0.353553 0.353553)
    end  :5 at:(1 0.353553 0.353553)

    point:1
    at:(1 0 0)
    procI:0
    transformI:0

    edge:6
    start:5 at:(1 0.353553 0.353553)
    end  :1 at:(1 0 0)


for edge:1 verts:(1 2) at:(1 0 0)(1 -0.353553 0.353553) found coupled edge:6 verts:(5 1) at:(1 0.353553 0.353553)(1 0 0) to point:(5 1) to point:(1 0)

for edge:2 verts:(2 3) at:(1 -0.353553 0.353553)(0 -0.353553 0.353553) found coupled edge:5 verts:(4 5) at:(0 0.353553 0.353553)(1 0.353553 0.353553) to point:(4 0) to point:(5 0)

for edge:3 verts:(3 0) at:(0 -0.353553 0.353553)(0 0 0) found coupled edge:4 verts:(0 4) at:(0 0 0)(0 0.353553 0.353553) to point:2{0} to point:(4 1)

for edge:4 verts:(0 4) at:(0 0 0)(0 0.353553 0.353553) found coupled edge:3 verts:(3 0) at:(0 -0.353553 0.353553)(0 0 0) to point:(3 1) to point:(0 1)

for edge:5 verts:(4 5) at:(0 0.353553 0.353553)(1 0.353553 0.353553) found coupled edge:2 verts:(2 3) at:(1 -0.353553 0.353553)(0 -0.353553 0.353553) to point:(2 1) to point:(3 1)

for edge:6 verts:(5 1) at:(1 0.353553 0.353553)(1 0 0) found coupled edge:1 verts:(1 2) at:(1 0 0)(1 -0.353553 0.353553) to point:2{1} to point:(2 1)

vals
Reading field p



--> FOAM FATAL IO ERROR: 
cannot find file

file: /home/mattijs/OpenFOAM/mattijs-extensions/applications/test/coupledFvPatch/testMatching/pipeCyclic/0/p at line 0.

    From function regIOobject::readStream()
    in file db/regIOobject/regIOobjectRead.C at line 72.

FOAM exiting

