/*---------------------------------------------------------------------------*\
| =========                 |                                                 |
| \\      /  F ield         | OpenFOAM: The Open Source CFD Toolbox           |
|  \\    /   O peration     | Version:  dev.feature-ACMI                      |
|   \\  /    A nd           | Web:      www.OpenFOAM.org                      |
|    \\/     M anipulation  |                                                 |
\*---------------------------------------------------------------------------*/
Build  : dev.feature-ACMI-c8ff51b887b2
Exec   : blockMesh
Date   : May 03 2016
Time   : 12:48:45
Host   : "bb"
PID    : 13939
Case   : /home/mattijs/OpenFOAM/mattijs-extensions/applications/test/coupledFvPatch/testMatching/processor
nProcs : 1
sigFpe : Enabling floating point exception trapping (FOAM_SIGFPE).
SetNaN : Initialising allocated memory to NaN (FOAM_SETNAN).
fileModificationChecking : Monitoring run-time modified files using timeStampMaster
allowSystemOperations : Allowing user-supplied system call operations

// * * * * * * * * * * * * * * * * * * * * * * * * * * * * * * * * * * * * * //
Create time

Overriding DebugSwitches according to controlDict
    globalIndexAndTransform 1;

Creating block mesh from
    "/home/mattijs/OpenFOAM/mattijs-extensions/applications/test/coupledFvPatch/testMatching/processor/system/blockMeshDict"
Creating curved edges
Creating topology blocks
Creating topology patches

Creating block mesh topology
--> FOAM Warning : 
    From function Foam::polyMesh::polyMesh(const Foam::IOobject&, const Foam::Xfer<Foam::Field<Foam::Vector<double> > >&, const cellShapeList&, const faceListList&, const wordList&, const Foam::PtrList<Foam::dictionary>&, const Foam::word&, const Foam::word&, bool)
    in file meshes/polyMesh/polyMeshFromShapeMesh.C at line 871
    Found 4 undefined faces in mesh; adding to default patch.

Check topology

	Basic statistics
		Number of internal faces : 0
		Number of boundary faces : 12
		Number of defined boundary faces : 12
		Number of undefined boundary faces : 0
	Checking patch -> block consistency

Creating block offsets
Creating merge list .

Creating polyMesh from blockMesh
Creating patches
Creating cells
Creating points with scale 1
    Block 0 cell size :
        i : 1 .. 1
        j : 1 .. 1
        k : 1 .. 1

    Block 1 cell size :
        i : 0.5 .. 0.5
        j : 1 .. 1
        k : 1 .. 1


There are no merge patch pairs edges

Writing polyMesh
----------------
Mesh Information
----------------
  boundingBox: (0 0 0) (1.5 1 1)
  nPoints: 16
  nCells: 2
  nFaces: 12
  nInternalFaces: 0
----------------
Patches
----------------
  patch 0 (start: 0 size: 1) name: left1
  patch 1 (start: 1 size: 1) name: right1
  patch 2 (start: 2 size: 2) name: walls1
  patch 3 (start: 4 size: 1) name: left2
  patch 4 (start: 5 size: 1) name: right2
  patch 5 (start: 6 size: 2) name: walls2
  patch 6 (start: 8 size: 4) name: frontAndBack

End

