Duplicate entry cyclicAMI in runtime selection table fvPatch
Duplicate entry cyclicAMI in runtime selection table fvPatch
Duplicate entry cyclicAMI in runtime selection table fvPatch
Duplicate entry cyclicAMI in runtime selection table fvPatch
#0	/home/dm2/mattijs/OpenFOAM/OpenFOAM-dev/platforms/linux64GccDPInt32Opt/lib/libOpenFOAM.so(_ZN4Foam5error14safePrintStackERSo+0x2b) [0x7fee8e81158b]
#1	moveDynamicMesh_readUpdate(_ZN4Foam7fvPatch30addpolyPatchConstructorToTableINS_16cyclicAMIFvPatchEEC2ERKNS_4wordE+0xac) [0x46657c]
#2	moveDynamicMesh_readUpdate() [0x463d89]
#3	moveDynamicMesh_readUpdate() [0x463dbf]
#4	moveDynamicMesh_readUpdate() [0x53714d]
#5	/lib64/libc.so.6(__libc_start_main+0x7f) [0x7fee8d30859f]
#6	moveDynamicMesh_readUpdate() [0x462719]
Duplicate entry cyclicAMI in runtime selection table fvPatchField
#0	/home/dm2/mattijs/OpenFOAM/OpenFOAM-dev/platforms/linux64GccDPInt32Opt/lib/libOpenFOAM.so(_ZN4Foam5error14safePrintStackERSo+0x2b) [0x7f399dcea58b]
#1	moveDynamicMesh_readUpdate(_ZN4Foam7fvPatch30addpolyPatchConstructorToTableINS_16cyclicAMIFvPatchEEC2ERKNS_4wordE+0xac) [0x46657c]
#2	moveDynamicMesh_readUpdate() [0x463d89]
#3	moveDynamicMesh_readUpdate() [0x463dbf]
#4	moveDynamicMesh_readUpdate() [0x53714d]
#5	/lib64/libc.so.6(__libc_start_main+0x7f) [0x7f399c7e159f]
#6	moveDynamicMesh_readUpdate() [0x462719]
Duplicate entry cyclicAMI in runtime selection table fvPatchField
#0	/home/dm2/mattijs/OpenFOAM/OpenFOAM-dev/platforms/linux64GccDPInt32Opt/lib/libOpenFOAM.so(_ZN4Foam5error14safePrintStackERSo+0x2b) [0x7fa136ac758b]
#1	moveDynamicMesh_readUpdate(_ZN4Foam7fvPatch30addpolyPatchConstructorToTableINS_16cyclicAMIFvPatchEEC2ERKNS_4wordE+0xac) [0x46657c]
#2	moveDynamicMesh_readUpdate() [0x463d89]
#3	moveDynamicMesh_readUpdate() [0x463dbf]
#4	moveDynamicMesh_readUpdate() [0x53714d]
#5	/lib64/libc.so.6(__libc_start_main+0x7f) [0x7fa1355be59f]
#6	moveDynamicMesh_readUpdate() [0x462719]
Duplicate entry cyclicAMI in runtime selection table fvPatchField
#0	/home/dm2/mattijs/OpenFOAM/OpenFOAM-dev/platforms/linux64GccDPInt32Opt/lib/libOpenFOAM.so(_ZN4Foam5error14safePrintStackERSo+0x2b) [0x7fd62bbce58b]
#1	moveDynamicMesh_readUpdate(_ZN4Foam7fvPatch30addpolyPatchConstructorToTableINS_16cyclicAMIFvPatchEEC2ERKNS_4wordE+0xac) [0x46657c]
#2	moveDynamicMesh_readUpdate() [0x463d89]
#3	moveDynamicMesh_readUpdate() [0x463dbf]
#4	moveDynamicMesh_readUpdate() [0x53714d]
#5	/lib64/libc.so.6(__libc_start_main+0x7f) [0x7fd62a6c559f]
#6	moveDynamicMesh_readUpdate() [0x462719]
Duplicate entry cyclicAMI in runtime selection table fvPatchField
#0	/home/dm2/mattijs/OpenFOAM/OpenFOAM-dev/platforms/linux64GccDPInt32Opt/lib/libOpenFOAM.so(_ZN4Foam5error14safePrintStackERSo+0x2b) [0x7fd62bbce58b]
#1	moveDynamicMesh_readUpdate() [0x4752fe]
#2	moveDynamicMesh_readUpdate() [0x4740d5]
#3	moveDynamicMesh_readUpdate() [0x474669]
#4	moveDynamicMesh_readUpdate() [0x53714d]
#5	/lib64/libc.so.6(__libc_start_main+0x7f) [0x7fd62a6c559f]
#6	moveDynamicMesh_readUpdate() [0x462719]
Duplicate entry cyclicAMI in runtime selection table fvPatchField
#0	/home/dm2/mattijs/OpenFOAM/OpenFOAM-dev/platforms/linux64GccDPInt32Opt/lib/libOpenFOAM.so(_ZN4Foam5error14safePrintStackERSo+0x2b) [0x7f399dcea58b]
#1	moveDynamicMesh_readUpdate() [0x4752fe]
#2	moveDynamicMesh_readUpdate() [0x4740d5]
#3	moveDynamicMesh_readUpdate() [0x474669]
#4	moveDynamicMesh_readUpdate() [0x53714d]
#5	/lib64/libc.so.6(__libc_start_main+0x7f) [0x7f399c7e159f]
#6	moveDynamicMesh_readUpdate() [0x462719]
Duplicate entry cyclicAMI in runtime selection table fvPatchField
#0	/home/dm2/mattijs/OpenFOAM/OpenFOAM-dev/platforms/linux64GccDPInt32Opt/lib/libOpenFOAM.so(_ZN4Foam5error14safePrintStackERSo+0x2b) [0x7fa136ac758b]
#1	moveDynamicMesh_readUpdate() [0x4752fe]
#2	moveDynamicMesh_readUpdate() [0x4740d5]
#3	moveDynamicMesh_readUpdate() [0x474669]
#4	moveDynamicMesh_readUpdate() [0x53714d]
#5	/lib64/libc.so.6(__libc_start_main+0x7f) [0x7fa1355be59f]
#6	moveDynamicMesh_readUpdate() [0x462719]
Duplicate entry cyclicAMI in runtime selection table fvPatchField
#0	/home/dm2/mattijs/OpenFOAM/OpenFOAM-dev/platforms/linux64GccDPInt32Opt/lib/libOpenFOAM.so(_ZN4Foam5error14safePrintStackERSo+0x2b) [0x7fee8e81158b]
#1	moveDynamicMesh_readUpdate() [0x4752fe]
#2	moveDynamicMesh_readUpdate() [0x4740d5]
#3	moveDynamicMesh_readUpdate() [0x474669]
#4	moveDynamicMesh_readUpdate() [0x53714d]
#5	/lib64/libc.so.6(__libc_start_main+0x7f) [0x7fee8d30859f]
#6	moveDynamicMesh_readUpdate() [0x462719]
Duplicate entry cyclicAMI in runtime selection table fvPatchField
#0	/home/dm2/mattijs/OpenFOAM/OpenFOAM-dev/platforms/linux64GccDPInt32Opt/lib/libOpenFOAM.so(_ZN4Foam5error14safePrintStackERSo+0x2b) [0x7fd62bbce58b]
#1	moveDynamicMesh_readUpdate() [0x4753b2]
#2	moveDynamicMesh_readUpdate() [0x47410e]
#3	moveDynamicMesh_readUpdate() [0x474669]
#4	moveDynamicMesh_readUpdate() [0x53714d]
#5	/lib64/libc.so.6(__libc_start_main+0x7f) [0x7fd62a6c559f]
#6	moveDynamicMesh_readUpdate() [0x462719]
Duplicate entry cyclicAMI in runtime selection table fvPatchField
#0	/home/dm2/mattijs/OpenFOAM/OpenFOAM-dev/platforms/linux64GccDPInt32Opt/lib/libOpenFOAM.so(_ZN4Foam5error14safePrintStackERSo+0x2b) [0x7fa136ac758b]
#1	moveDynamicMesh_readUpdate() [0x4753b2]
#2	moveDynamicMesh_readUpdate() [0x47410e]
#3	moveDynamicMesh_readUpdate() [0x474669]
#4	moveDynamicMesh_readUpdate() [0x53714d]
#5	/lib64/libc.so.6(__libc_start_main+0x7f) [0x7fa1355be59f]
#6	moveDynamicMesh_readUpdate() [0x462719]
Duplicate entry cyclicAMI in runtime selection table fvPatchField
#0	/home/dm2/mattijs/OpenFOAM/OpenFOAM-dev/platforms/linux64GccDPInt32Opt/lib/libOpenFOAM.so(_ZN4Foam5error14safePrintStackERSo+0x2b) [0x7fee8e81158b]
#1	moveDynamicMesh_readUpdate() [0x4753b2]
#2	moveDynamicMesh_readUpdate() [0x47410e]
#3	moveDynamicMesh_readUpdate() [0x474669]
#4	moveDynamicMesh_readUpdate() [0x53714d]
#5	/lib64/libc.so.6(__libc_start_main+0x7f) [0x7fee8d30859f]
#6	moveDynamicMesh_readUpdate() [0x462719]
Duplicate entry cyclicAMI in runtime selection table fvPatchField
#0	/home/dm2/mattijs/OpenFOAM/OpenFOAM-dev/platforms/linux64GccDPInt32Opt/lib/libOpenFOAM.so(_ZN4Foam5error14safePrintStackERSo+0x2b) [0x7f399dcea58b]
#1	moveDynamicMesh_readUpdate() [0x4753b2]
#2	moveDynamicMesh_readUpdate() [0x47410e]
#3	moveDynamicMesh_readUpdate() [0x474669]
#4	moveDynamicMesh_readUpdate() [0x53714d]
#5	/lib64/libc.so.6(__libc_start_main+0x7f) [0x7f399c7e159f]
#6	moveDynamicMesh_readUpdate() [0x462719]
Duplicate entry cyclicAMI in runtime selection table fvPatchField
#0	/home/dm2/mattijs/OpenFOAM/OpenFOAM-dev/platforms/linux64GccDPInt32Opt/lib/libOpenFOAM.so(_ZN4Foam5error14safePrintStackERSo+0x2b) [0x7fd62bbce58b]
#1	moveDynamicMesh_readUpdate() [0x475466]
#2	moveDynamicMesh_readUpdate() [0x474147]
#3	moveDynamicMesh_readUpdate() [0x474669]
#4	moveDynamicMesh_readUpdate() [0x53714d]
#5	/lib64/libc.so.6(__libc_start_main+0x7f) [0x7fd62a6c559f]
#6	moveDynamicMesh_readUpdate() [0x462719]
Duplicate entry cyclicAMI in runtime selection table fvPatchField
#0	/home/dm2/mattijs/OpenFOAM/OpenFOAM-dev/platforms/linux64GccDPInt32Opt/lib/libOpenFOAM.so(_ZN4Foam5error14safePrintStackERSo+0x2b) [0x7fa136ac758b]
#1	moveDynamicMesh_readUpdate() [0x475466]
#2	moveDynamicMesh_readUpdate() [0x474147]
#3	moveDynamicMesh_readUpdate() [0x474669]
#4	moveDynamicMesh_readUpdate() [0x53714d]
#5	/lib64/libc.so.6(__libc_start_main+0x7f) [0x7fa1355be59f]
#6	moveDynamicMesh_readUpdate() [0x462719]
Duplicate entry cyclicAMI in runtime selection table fvPatchField
#0	/home/dm2/mattijs/OpenFOAM/OpenFOAM-dev/platforms/linux64GccDPInt32Opt/lib/libOpenFOAM.so(_ZN4Foam5error14safePrintStackERSo+0x2b) [0x7fee8e81158b]
#1	moveDynamicMesh_readUpdate() [0x475466]
#2	moveDynamicMesh_readUpdate() [0x474147]
#3	moveDynamicMesh_readUpdate() [0x474669]
#4	moveDynamicMesh_readUpdate() [0x53714d]
#5	/lib64/libc.so.6(__libc_start_main+0x7f) [0x7fee8d30859f]
#6	moveDynamicMesh_readUpdate() [0x462719]
Duplicate entry cyclicAMI in runtime selection table fvPatchField
#0	/home/dm2/mattijs/OpenFOAM/OpenFOAM-dev/platforms/linux64GccDPInt32Opt/lib/libOpenFOAM.so(_ZN4Foam5error14safePrintStackERSo+0x2b) [0x7f399dcea58b]
#1	moveDynamicMesh_readUpdate() [0x475466]
#2	moveDynamicMesh_readUpdate() [0x474147]
#3	moveDynamicMesh_readUpdate() [0x474669]
#4	moveDynamicMesh_readUpdate() [0x53714d]
#5	/lib64/libc.so.6(__libc_start_main+0x7f) [0x7f399c7e159f]
#6	moveDynamicMesh_readUpdate() [0x462719]
Duplicate entry cyclicAMI in runtime selection table fvPatchField
#0	/home/dm2/mattijs/OpenFOAM/OpenFOAM-dev/platforms/linux64GccDPInt32Opt/lib/libOpenFOAM.so(_ZN4Foam5error14safePrintStackERSo+0x2b) [0x7fee8e81158b]
#1	moveDynamicMesh_readUpdate() [0x475566]
#2	moveDynamicMesh_readUpdate() [0x474210]
#3	moveDynamicMesh_readUpdate() [0x474669]
#4	moveDynamicMesh_readUpdate() [0x53714d]
#5	/lib64/libc.so.6(__libc_start_main+0x7f) [0x7fee8d30859f]
#6	moveDynamicMesh_readUpdate() [0x462719]
Duplicate entry cyclicAMI in runtime selection table fvPatchField
#0	/home/dm2/mattijs/OpenFOAM/OpenFOAM-dev/platforms/linux64GccDPInt32Opt/lib/libOpenFOAM.so(_ZN4Foam5error14safePrintStackERSo+0x2b) [0x7fd62bbce58b]
#1	moveDynamicMesh_readUpdate() [0x475566]
#2	moveDynamicMesh_readUpdate() [0x474210]
#3	moveDynamicMesh_readUpdate() [0x474669]
#4	moveDynamicMesh_readUpdate() [0x53714d]
#5	/lib64/libc.so.6(__libc_start_main+0x7f) [0x7fd62a6c559f]
#6	moveDynamicMesh_readUpdate() [0x462719]
Duplicate entry cyclicAMI in runtime selection table fvPatchField
#0	/home/dm2/mattijs/OpenFOAM/OpenFOAM-dev/platforms/linux64GccDPInt32Opt/lib/libOpenFOAM.so(_ZN4Foam5error14safePrintStackERSo+0x2b) [0x7fa136ac758b]
#1	moveDynamicMesh_readUpdate() [0x475566]
#2	moveDynamicMesh_readUpdate() [0x474210]
#3	moveDynamicMesh_readUpdate() [0x474669]
#4	moveDynamicMesh_readUpdate() [0x53714d]
#5	/lib64/libc.so.6(__libc_start_main+0x7f) [0x7fa1355be59f]
#6	moveDynamicMesh_readUpdate() [0x462719]
Duplicate entry cyclicAMI in runtime selection table fvPatchField
#0	/home/dm2/mattijs/OpenFOAM/OpenFOAM-dev/platforms/linux64GccDPInt32Opt/lib/libOpenFOAM.so(_ZN4Foam5error14safePrintStackERSo+0x2b) [0x7f399dcea58b]
#1	moveDynamicMesh_readUpdate() [0x475566]
#2	moveDynamicMesh_readUpdate() [0x474210]
#3	moveDynamicMesh_readUpdate() [0x474669]
#4	moveDynamicMesh_readUpdate() [0x53714d]
#5	/lib64/libc.so.6(__libc_start_main+0x7f) [0x7f399c7e159f]
#6	moveDynamicMesh_readUpdate() [0x462719]
Duplicate entry cyclicAMI in runtime selection table fvPatchField
#0	/home/dm2/mattijs/OpenFOAM/OpenFOAM-dev/platforms/linux64GccDPInt32Opt/lib/libOpenFOAM.so(_ZN4Foam5error14safePrintStackERSo+0x2b) [0x7fd62bbce58b]
#1	moveDynamicMesh_readUpdate() [0x47561a]
#2	moveDynamicMesh_readUpdate() [0x474249]
#3	moveDynamicMesh_readUpdate() [0x474669]
#4	moveDynamicMesh_readUpdate() [0x53714d]
#5	/lib64/libc.so.6(__libc_start_main+0x7f) [0x7fd62a6c559f]
#6	moveDynamicMesh_readUpdate() [0x462719]
Duplicate entry cyclicAMI in runtime selection table fvPatchField
#0	/home/dm2/mattijs/OpenFOAM/OpenFOAM-dev/platforms/linux64GccDPInt32Opt/lib/libOpenFOAM.so(_ZN4Foam5error14safePrintStackERSo+0x2b) [0x7fa136ac758b]
#1	moveDynamicMesh_readUpdate() [0x47561a]
#2	moveDynamicMesh_readUpdate() [0x474249]
#3	moveDynamicMesh_readUpdate() [0x474669]
#4	moveDynamicMesh_readUpdate() [0x53714d]
#5	/lib64/libc.so.6(__libc_start_main+0x7f) [0x7fa1355be59f]
#6	moveDynamicMesh_readUpdate() [0x462719]
Duplicate entry cyclicAMI in runtime selection table fvPatchField
#0	/home/dm2/mattijs/OpenFOAM/OpenFOAM-dev/platforms/linux64GccDPInt32Opt/lib/libOpenFOAM.so(_ZN4Foam5error14safePrintStackERSo+0x2b) [0x7fee8e81158b]
#1	moveDynamicMesh_readUpdate() [0x47561a]
#2	moveDynamicMesh_readUpdate() [0x474249]
#3	moveDynamicMesh_readUpdate() [0x474669]
#4	moveDynamicMesh_readUpdate() [0x53714d]
#5	/lib64/libc.so.6(__libc_start_main+0x7f) [0x7fee8d30859f]
#6	moveDynamicMesh_readUpdate() [0x462719]
Duplicate entry cyclicAMI in runtime selection table fvPatchField
#0	/home/dm2/mattijs/OpenFOAM/OpenFOAM-dev/platforms/linux64GccDPInt32Opt/lib/libOpenFOAM.so(_ZN4Foam5error14safePrintStackERSo+0x2b) [0x7f399dcea58b]
#1	moveDynamicMesh_readUpdate() [0x47561a]
#2	moveDynamicMesh_readUpdate() [0x474249]
#3	moveDynamicMesh_readUpdate() [0x474669]
#4	moveDynamicMesh_readUpdate() [0x53714d]
#5	/lib64/libc.so.6(__libc_start_main+0x7f) [0x7f399c7e159f]
#6	moveDynamicMesh_readUpdate() [0x462719]
Duplicate entry cyclicAMI in runtime selection table fvPatchField
#0	/home/dm2/mattijs/OpenFOAM/OpenFOAM-dev/platforms/linux64GccDPInt32Opt/lib/libOpenFOAM.so(_ZN4Foam5error14safePrintStackERSo+0x2b) [0x7fd62bbce58b]
#1	moveDynamicMesh_readUpdate() [0x4756ce]
#2	moveDynamicMesh_readUpdate() [0x474282]
#3	moveDynamicMesh_readUpdate() [0x474669]
#4	moveDynamicMesh_readUpdate() [0x53714d]
#5	/lib64/libc.so.6(__libc_start_main+0x7f) [0x7fd62a6c559f]
#6	moveDynamicMesh_readUpdate() [0x462719]
Duplicate entry cyclicAMI in runtime selection table fvPatchField
#0	/home/dm2/mattijs/OpenFOAM/OpenFOAM-dev/platforms/linux64GccDPInt32Opt/lib/libOpenFOAM.so(_ZN4Foam5error14safePrintStackERSo+0x2b) [0x7fa136ac758b]
#1	moveDynamicMesh_readUpdate() [0x4756ce]
#2	moveDynamicMesh_readUpdate() [0x474282]
#3	moveDynamicMesh_readUpdate() [0x474669]
#4	moveDynamicMesh_readUpdate() [0x53714d]
#5	/lib64/libc.so.6(__libc_start_main+0x7f) [0x7fa1355be59f]
#6	moveDynamicMesh_readUpdate() [0x462719]
Duplicate entry cyclicAMI in runtime selection table fvPatchField
#0	/home/dm2/mattijs/OpenFOAM/OpenFOAM-dev/platforms/linux64GccDPInt32Opt/lib/libOpenFOAM.so(_ZN4Foam5error14safePrintStackERSo+0x2b) [0x7fee8e81158b]
#1	moveDynamicMesh_readUpdate() [0x4756ce]
#2	moveDynamicMesh_readUpdate() [0x474282]
#3	moveDynamicMesh_readUpdate() [0x474669]
#4	moveDynamicMesh_readUpdate() [0x53714d]
#5	/lib64/libc.so.6(__libc_start_main+0x7f) [0x7fee8d30859f]
#6	moveDynamicMesh_readUpdate() [0x462719]
Duplicate entry cyclicAMI in runtime selection table fvPatchField
#0	/home/dm2/mattijs/OpenFOAM/OpenFOAM-dev/platforms/linux64GccDPInt32Opt/lib/libOpenFOAM.so(_ZN4Foam5error14safePrintStackERSo+0x2b) [0x7f399dcea58b]
#1	moveDynamicMesh_readUpdate() [0x4756ce]
#2	moveDynamicMesh_readUpdate() [0x474282]
#3	moveDynamicMesh_readUpdate() [0x474669]
#4	moveDynamicMesh_readUpdate() [0x53714d]
#5	/lib64/libc.so.6(__libc_start_main+0x7f) [0x7f399c7e159f]
#6	moveDynamicMesh_readUpdate() [0x462719]
Duplicate entry cyclicAMI in runtime selection table fvPatchField
#0	/home/dm2/mattijs/OpenFOAM/OpenFOAM-dev/platforms/linux64GccDPInt32Opt/lib/libOpenFOAM.so(_ZN4Foam5error14safePrintStackERSo+0x2b) [0x7fd62bbce58b]
#1	moveDynamicMesh_readUpdate() [0x4757ce]
#2	moveDynamicMesh_readUpdate() [0x47434b]
#3	moveDynamicMesh_readUpdate() [0x474669]
#4	moveDynamicMesh_readUpdate() [0x53714d]
#5	/lib64/libc.so.6(__libc_start_main+0x7f) [0x7fd62a6c559f]
#6	moveDynamicMesh_readUpdate() [0x462719]
Duplicate entry cyclicAMI in runtime selection table fvPatchField
#0	/home/dm2/mattijs/OpenFOAM/OpenFOAM-dev/platforms/linux64GccDPInt32Opt/lib/libOpenFOAM.so(_ZN4Foam5error14safePrintStackERSo+0x2b) [0x7fa136ac758b]
#1	moveDynamicMesh_readUpdate() [0x4757ce]
#2	moveDynamicMesh_readUpdate() [0x47434b]
#3	moveDynamicMesh_readUpdate() [0x474669]
#4	moveDynamicMesh_readUpdate() [0x53714d]
#5	/lib64/libc.so.6(__libc_start_main+0x7f) [0x7fa1355be59f]
#6	moveDynamicMesh_readUpdate() [0x462719]
Duplicate entry cyclicAMI in runtime selection table fvPatchField
#0	/home/dm2/mattijs/OpenFOAM/OpenFOAM-dev/platforms/linux64GccDPInt32Opt/lib/libOpenFOAM.so(_ZN4Foam5error14safePrintStackERSo+0x2b) [0x7fee8e81158b]
#1	moveDynamicMesh_readUpdate() [0x4757ce]
#2	moveDynamicMesh_readUpdate() [0x47434b]
#3	moveDynamicMesh_readUpdate() [0x474669]
#4	moveDynamicMesh_readUpdate() [0x53714d]
#5	/lib64/libc.so.6(__libc_start_main+0x7f) [0x7fee8d30859f]
#6	moveDynamicMesh_readUpdate() [0x462719]
Duplicate entry cyclicAMI in runtime selection table fvPatchField
#0	/home/dm2/mattijs/OpenFOAM/OpenFOAM-dev/platforms/linux64GccDPInt32Opt/lib/libOpenFOAM.so(_ZN4Foam5error14safePrintStackERSo+0x2b) [0x7f399dcea58b]
#1	moveDynamicMesh_readUpdate() [0x4757ce]
#2	moveDynamicMesh_readUpdate() [0x47434b]
#3	moveDynamicMesh_readUpdate() [0x474669]
#4	moveDynamicMesh_readUpdate() [0x53714d]
#5	/lib64/libc.so.6(__libc_start_main+0x7f) [0x7f399c7e159f]
#6	moveDynamicMesh_readUpdate() [0x462719]
Duplicate entry cyclicAMI in runtime selection table fvPatchField
#0	/home/dm2/mattijs/OpenFOAM/OpenFOAM-dev/platforms/linux64GccDPInt32Opt/lib/libOpenFOAM.so(_ZN4Foam5error14safePrintStackERSo+0x2b) [0x7fee8e81158b]
#1	moveDynamicMesh_readUpdate() [0x475882]
#2	moveDynamicMesh_readUpdate() [0x474384]
#3#0	/home/dm2/mattijs/OpenFOAM/OpenFOAM-dev/platforms/linux64GccDPInt32Opt/lib/libOpenFOAM.so(_ZN4Foam5error14safePrintStackERSo+0x2b) [0x7fd62bbce58b]
#1	moveDynamicMesh_readUpdate() [0x475882]
#2	moveDynamicMesh_readUpdate() [0x474384]
#3	moveDynamicMesh_readUpdate() [0x474669]
#4	moveDynamicMesh_readUpdate() [0x53714d]
#5	/lib64/libc.so.6(__libc_start_main+0x7f) [0x7fd62a6c559f]
#6	moveDynamicMesh_readUpdate() [0x462719]
#0	/home/dm2/mattijs/OpenFOAM/OpenFOAM-dev/platforms/linux64GccDPInt32Opt/lib/libOpenFOAM.so(_ZN4Foam5error14safePrintStackERSo+0x2b) [0x7fa136ac758b]
#1	moveDynamicMesh_readUpdate() [0x475882]
#2	moveDynamicMesh_readUpdate() [0x474384]
#3	moveDynamicMesh_readUpdate() [0x474669]
#4	moveDynamicMesh_readUpdate() [0x53714d]
#5	/lib64/libc.so.6(__libc_start_main+0x7f) [0x7fa1355be59f]
#6	moveDynamicMesh_readUpdate() [0x462719]
Duplicate entry cyclicAMI in runtime selection table fvPatchField
	moveDynamicMesh_readUpdate() [0x474669]
#4	moveDynamicMesh_readUpdate() [0x53714d]
#5	/lib64/libc.so.6(__libc_start_main+0x7f) [0x7fee8d30859f]
#6	moveDynamicMesh_readUpdate() [0x462719]
Duplicate entry cyclicAMI in runtime selection table fvPatchField
Duplicate entry cyclicAMI in runtime selection table fvPatchField
#0	/home/dm2/mattijs/OpenFOAM/OpenFOAM-dev/platforms/linux64GccDPInt32Opt/lib/libOpenFOAM.so(_ZN4Foam5error14safePrintStackERSo+0x2b) [0x7f399dcea58b]
#1	moveDynamicMesh_readUpdate() [0x475882]
#2	moveDynamicMesh_readUpdate() [0x474384]
#3	moveDynamicMesh_readUpdate() [0x474669]
#4	moveDynamicMesh_readUpdate() [0x53714d]
#5	/lib64/libc.so.6(__libc_start_main+0x7f) [0x7f399c7e159f]
#6	moveDynamicMesh_readUpdate() [0x462719]
Duplicate entry cyclicAMI in runtime selection table fvPatchField
#0	/home/dm2/mattijs/OpenFOAM/OpenFOAM-dev/platforms/linux64GccDPInt32Opt/lib/libOpenFOAM.so(_ZN4Foam5error14safePrintStackERSo+0x2b) [0x7fa136ac758b]
#1	moveDynamicMesh_readUpdate() [0x475936]#0	/home/dm2/mattijs/OpenFOAM/OpenFOAM-dev/platforms/linux64GccDPInt32Opt/lib/libOpenFOAM.so(_ZN4Foam5error14safePrintStackERSo+0x2b) [0x7fee8e81158b]
#1	moveDynamicMesh_readUpdate() [0x475936]

#2	moveDynamicMesh_readUpdate() [0x4743bd]
#3	moveDynamicMesh_readUpdate() [0x474669]
#4	moveDynamicMesh_readUpdate() [0x53714d]
##0	/home/dm2/mattijs/OpenFOAM/OpenFOAM-dev/platforms/linux64GccDPInt32Opt/lib/libOpenFOAM.so(_ZN4Foam5error14safePrintStackERSo+0x2b) [0x7fd62bbce58b]
#1	moveDynamicMesh_readUpdate() [0x475936]
#2	moveDynamicMesh_readUpdate() [0x4743bd]
#3	moveDynamicMesh_readUpdate() [0x474669]
#4	moveDynamicMesh_readUpdate() [0x53714d]
#5	/lib64/libc.so.6(__libc_start_main+0x7f) [0x7fd62a6c559f]
#6	moveDynamicMesh_readUpdate() [0x462719]
5	/lib64/libc.so.6(__libc_start_main+0x7f) [0x7fa1355be59f]
#6	moveDynamicMesh_readUpdate() [0x462719]
#2	moveDynamicMesh_readUpdate() [0x4743bd]
#3	moveDynamicMesh_readUpdate() [0x474669]
#4	moveDynamicMesh_readUpdate() [0x53714d]
#5	/lib64/libc.so.6(__libc_start_main+0x7f) [0x7fee8d30859f]
#6	moveDynamicMesh_readUpdate() [0x462719]
Duplicate entry cyclicAMI in runtime selection table fvPatchField
Duplicate entry cyclicAMI in runtime selection table fvPatchField
Duplicate entry cyclicAMI in runtime selection table fvPatchField
#0	/home/dm2/mattijs/OpenFOAM/OpenFOAM-dev/platforms/linux64GccDPInt32Opt/lib/libOpenFOAM.so(_ZN4Foam5error14safePrintStackERSo+0x2b) [0x7fa136ac758b]
#1	moveDynamicMesh_readUpdate() [0x475a36]
#2	moveDynamicMesh_readUpdate() [0x474486]
#3	moveDynamicMesh_readUpdate() [0x474669]
#4	moveDynamicMesh_readUpdate() [0x53714d]
#5	/lib64/libc.so.6(__libc_start_main+0x7f) [0x7fa1355be59f]
#6	moveDynamicMesh_readUpdate() [0x462719]
Duplicate entry cyclicAMI in runtime selection table fvPatchField
#0	/home/dm2/mattijs/OpenFOAM/OpenFOAM-dev/platforms/linux64GccDPInt32Opt/lib/libOpenFOAM.so(_ZN4Foam5error14safePrintStackERSo+0x2b) [0x7fd62bbce58b]
#1	moveDynamicMesh_readUpdate() [0x475a36]
#2	moveDynamicMesh_readUpdate() [0x474486]
#3	moveDynamicMesh_readUpdate() [0x474669]
#4	moveDynamicMesh_readUpdate() [0x53714d]
#5	/lib64/libc.so.6(__libc_start_main+0x7f) [0x7fd62a6c559f]
#6	moveDynamicMesh_readUpdate() [0x462719]
Duplicate entry cyclicAMI in runtime selection table fvPatchField
#0	/home/dm2/mattijs/OpenFOAM/OpenFOAM-dev/platforms/linux64GccDPInt32Opt/lib/libOpenFOAM.so(_ZN4Foam5error14safePrintStackERSo+0x2b) [0x7fee8e81158b]
#1	moveDynamicMesh_readUpdate() [0x475a36]
#2	moveDynamicMesh_readUpdate() [0x474486]
#3	moveDynamicMesh_readUpdate() [0x474669]
#4	moveDynamicMesh_readUpdate() [0x53714d]
#5	/lib64/libc.so.6(__libc_start_main+0x7f) [0x7fee8d30859f]
#6	moveDynamicMesh_readUpdate() [0x462719]
Duplicate entry cyclicAMI in runtime selection table fvPatchField
#0	/home/dm2/mattijs/OpenFOAM/OpenFOAM-dev/platforms/linux64GccDPInt32Opt/lib/libOpenFOAM.so(_ZN4Foam5error14safePrintStackERSo+0x2b) [0x7f399dcea58b]
#1	moveDynamicMesh_readUpdate() [0x475936]
#2	moveDynamicMesh_readUpdate() [0x4743bd]
#3	moveDynamicMesh_readUpdate() [0x474669]
#4	moveDynamicMesh_readUpdate() [0x53714d]
#5	/lib64/libc.so.6(__libc_start_main+0x7f) [0x7f399c7e159f]
#6	moveDynamicMesh_readUpdate() [0x462719]
Duplicate entry cyclicAMI in runtime selection table fvPatchField
#0	/home/dm2/mattijs/OpenFOAM/OpenFOAM-dev/platforms/linux64GccDPInt32Opt/lib/libOpenFOAM.so(_ZN4Foam5error14safePrintStackERSo+0x2b) [0x7fd62bbce58b]
#1	moveDynamicMesh_readUpdate() [0x475aea]
#2	moveDynamicMesh_readUpdate() [0x4744bf]
#3	moveDynamicMesh_readUpdate() [0x474669]
#4	moveDynamicMesh_readUpdate() [0x53714d]
#5	/lib64/libc.so.6(__libc_start_main+0x7f) [0x7fd62a6c559f]
#6	moveDynamicMesh_readUpdate() [0x462719]
Duplicate entry cyclicAMI in runtime selection table fvPatchField
#0	/home/dm2/mattijs/OpenFOAM/OpenFOAM-dev/platforms/linux64GccDPInt32Opt/lib/libOpenFOAM.so(_ZN4Foam5error14safePrintStackERSo+0x2b) [0x7fee8e81158b]
#1	moveDynamicMesh_readUpdate() [0x475aea]
#2	moveDynamicMesh_readUpdate() [0x4744bf]
#3	moveDynamicMesh_readUpdate() [0x474669]
#4	moveDynamicMesh_readUpdate() [0x53714d]
#5	/lib64/libc.so.6(__libc_start_main+0x7f) [0x7fee8d30859f]
#6	moveDynamicMesh_readUpdate() [0x462719]
Duplicate entry cyclicAMI in runtime selection table fvPatchField
#0	/home/dm2/mattijs/OpenFOAM/OpenFOAM-dev/platforms/linux64GccDPInt32Opt/lib/libOpenFOAM.so(_ZN4Foam5error14safePrintStackERSo+0x2b) [0x7fa136ac758b]
#1	moveDynamicMesh_readUpdate() [0x475aea]
#2	moveDynamicMesh_readUpdate() [0x4744bf]
#3	moveDynamicMesh_readUpdate() [0x474669]
#4	moveDynamicMesh_readUpdate() [0x53714d]
#5	/lib64/libc.so.6(__libc_start_main+0x7f) [0x7fa1355be59f]
#6	moveDynamicMesh_readUpdate() [0x462719]
Duplicate entry cyclicAMI in runtime selection table fvPatchField
#0	/home/dm2/mattijs/OpenFOAM/OpenFOAM-dev/platforms/linux64GccDPInt32Opt/lib/libOpenFOAM.so(_ZN4Foam5error14safePrintStackERSo+0x2b) [0x7f399dcea58b]
#1	moveDynamicMesh_readUpdate() [0x475a36]
#2	moveDynamicMesh_readUpdate() [0x474486]
#3	moveDynamicMesh_readUpdate() [0x474669]
#4	moveDynamicMesh_readUpdate() [0x53714d]
#5	/lib64/libc.so.6(__libc_start_main+0x7f) [0x7f399c7e159f]
#6	moveDynamicMesh_readUpdate() [0x462719]
Duplicate entry cyclicAMI in runtime selection table fvPatchField
#0	/home/dm2/mattijs/OpenFOAM/OpenFOAM-dev/platforms/linux64GccDPInt32Opt/lib/libOpenFOAM.so(_ZN4Foam5error14safePrintStackERSo+0x2b) [0x7fee8e81158b]
#1	moveDynamicMesh_readUpdate() [0x475b9e]
#2	moveDynamicMesh_readUpdate() [0x4744f8]
#3	#0	/home/dm2/mattijs/OpenFOAM/OpenFOAM-dev/platforms/linux64GccDPInt32Opt/lib/libOpenFOAM.so(_ZN4Foam5error14safePrintStackERSo+0x2b) [0x7fa136ac758b]
#1	moveDynamicMesh_readUpdate() [0x475b9e]
#2	moveDynamicMesh_readUpdate() [0x4744f8]
#3	moveDynamicMesh_readUpdate() [0x474669]
#4	moveDynamicMesh_readUpdate() [0x53714d]
#5	/lib64/libc.so.6(__libc_start_main+0x7f) [0x7fa1355be59f]
#6	moveDynamicMesh_readUpdate() [0x462719]
Duplicate entry cyclicAMI in runtime selection table fvPatchField
#0	/home/dm2/mattijs/OpenFOAM/OpenFOAM-dev/platforms/linux64GccDPInt32Opt/lib/libOpenFOAM.so(_ZN4Foam5error14safePrintStackERSo+0x2b) [0x7fd62bbce58b]
#1	moveDynamicMesh_readUpdate() [0x475b9e]
#2	moveDynamicMesh_readUpdate() [0x4744f8]
#3	moveDynamicMesh_readUpdate() [0x474669]
#4	moveDynamicMesh_readUpdate() [0x53714d]
#5	/lib64/libc.so.6(__libc_start_main+0x7f) [0x7fd62a6c559f]
#6	moveDynamicMesh_readUpdate() [0x462719]
Duplicate entry cyclicAMI in runtime selection table fvPatchField
moveDynamicMesh_readUpdate() [0x474669]
#4	moveDynamicMesh_readUpdate() [0x53714d]
#5	/lib64/libc.so.6(__libc_start_main+0x7f) [0x7fee8d30859f]
#6	moveDynamicMesh_readUpdate() [0x462719]
Duplicate entry cyclicAMI in runtime selection table fvPatchField
#0	/home/dm2/mattijs/OpenFOAM/OpenFOAM-dev/platforms/linux64GccDPInt32Opt/lib/libOpenFOAM.so(_ZN4Foam5error14safePrintStackERSo+0x2b) [0x7f399dcea58b]
#1	moveDynamicMesh_readUpdate() [0x475aea]
#2	moveDynamicMesh_readUpdate() [0x4744bf]
#3	moveDynamicMesh_readUpdate() [0x474669]
#4	moveDynamicMesh_readUpdate() [0x53714d]
#5	/lib64/libc.so.6(__libc_start_main+0x7f) [0x7f399c7e159f]
#6	moveDynamicMesh_readUpdate() [0x462719]
Duplicate entry cyclicAMI in runtime selection table fvPatchField
#0	/home/dm2/mattijs/OpenFOAM/OpenFOAM-dev/platforms/linux64GccDPInt32Opt/lib/libOpenFOAM.so(_ZN4Foam5error14safePrintStackERSo+0x2b) [0x7fd62bbce58b]
#1	moveDynamicMesh_readUpdate() [0x475c9e]
#2	moveDynamicMesh_readUpdate() [0x4745c1]
#3	moveDynamicMesh_readUpdate() [0x474669]
#4	moveDynamicMesh_readUpdate() [0x53714d]#0	/home/dm2/mattijs/OpenFOAM/OpenFOAM-dev/platforms/linux64GccDPInt32Opt/lib/libOpenFOAM.so(_ZN4Foam5error14safePrintStackERSo+0x2b) [0x7fa136ac758b]
#1	moveDynamicMesh_readUpdate() [0x475c9e]
#2	moveDynamicMesh_readUpdate() [0x4745c1]
#3	moveDynamicMesh_readUpdate() [0x474669]
#4	moveDynamicMesh_readUpdate() [0x53714d]
#5	/lib64/libc.so.6(__libc_start_main+0x7f) [0x7fa1355be59f]
#6	moveDynamicMesh_readUpdate() [0x462719]
Duplicate entry cyclicAMI in runtime selection table fvPatchField

#5	/lib64/libc.so.6(__libc_start_main+0x7f) [0x7fd62a6c559f]
#6	moveDynamicMesh_readUpdate() [0x462719]
Duplicate entry cyclicAMI in runtime selection table fvPatchField
#0	/home/dm2/mattijs/OpenFOAM/OpenFOAM-dev/platforms/linux64GccDPInt32Opt/lib/libOpenFOAM.so(_ZN4Foam5error14safePrintStackERSo+0x2b) [0x7fee8e81158b]
#1	moveDynamicMesh_readUpdate() [0x475c9e]
#2	moveDynamicMesh_readUpdate() [0x4745c1]
#3	moveDynamicMesh_readUpdate() [0x474669]
#4	moveDynamicMesh_readUpdate() [0x53714d]
#5	/lib64/libc.so.6(__libc_start_main+0x7f) [0x7fee8d30859f]
#6	moveDynamicMesh_readUpdate() [0x462719]
Duplicate entry cyclicAMI in runtime selection table fvPatchField
#0	/home/dm2/mattijs/OpenFOAM/OpenFOAM-dev/platforms/linux64GccDPInt32Opt/lib/libOpenFOAM.so(_ZN4Foam5error14safePrintStackERSo+0x2b) [0x7f399dcea58b]
#1	moveDynamicMesh_readUpdate() [0x475b9e]
#2	moveDynamicMesh_readUpdate() [0x4744f8]
#3	moveDynamicMesh_readUpdate() [0x474669]
#4	moveDynamicMesh_readUpdate() [0x53714d]
#5	/lib64/libc.so.6(__libc_start_main+0x7f) [0x7f399c7e159f]
#6	moveDynamicMesh_readUpdate() [0x462719]
Duplicate entry cyclicAMI in runtime selection table fvPatchField
#0	/home/dm2/mattijs/OpenFOAM/OpenFOAM-dev/platforms/linux64GccDPInt32Opt/lib/libOpenFOAM.so(_ZN4Foam5error14safePrintStackERSo+0x2b) [0x7fa136ac758b]
#1	moveDynamicMesh_readUpdate() [0x475d52]
#2	moveDynamicMesh_readUpdate() [0x4745fa]
##0	/home/dm2/mattijs/OpenFOAM/OpenFOAM-dev/platforms/linux64GccDPInt32Opt/lib/libOpenFOAM.so(_ZN4Foam5error14safePrintStackERSo+0x2b) [0x7fd62bbce58b]
#1	moveDynamicMesh_readUpdate() [0x475d52]
#2	moveDynamicMesh_readUpdate() [0x4745fa]
#3	moveDynamicMesh_readUpdate() [0x474669]
#4	moveDynamicMesh_readUpdate() [0x53714d]
#5	/lib64/libc.so.6(__libc_start_main+0x7f) [0x7fd62a6c559f]
#6	moveDynamicMesh_readUpdate() [0x462719]
3	moveDynamicMesh_readUpdate() [0x474669]
#4	moveDynamicMesh_readUpdate() [0x53714d]
#5	/lib64/libc.so.6(__libc_start_main+0x7f) [0x7fa1355be59f]
#6	moveDynamicMesh_readUpdate() [0x462719]
Duplicate entry cyclicAMI in runtime selection table fvPatchField
Duplicate entry cyclicAMI in runtime selection table fvPatchField
#0	/home/dm2/mattijs/OpenFOAM/OpenFOAM-dev/platforms/linux64GccDPInt32Opt/lib/libOpenFOAM.so(_ZN4Foam5error14safePrintStackERSo+0x2b) [0x7fee8e81158b]
#1	moveDynamicMesh_readUpdate() [0x475d52]
#2	moveDynamicMesh_readUpdate() [0x4745fa]
#3	moveDynamicMesh_readUpdate() [0x474669]
#4	moveDynamicMesh_readUpdate() [0x53714d]
#5	/lib64/libc.so.6(__libc_start_main+0x7f) [0x7fee8d30859f]
#6	moveDynamicMesh_readUpdate() [0x462719]
Duplicate entry cyclicAMI in runtime selection table fvPatchField
#0	/home/dm2/mattijs/OpenFOAM/OpenFOAM-dev/platforms/linux64GccDPInt32Opt/lib/libOpenFOAM.so(_ZN4Foam5error14safePrintStackERSo+0x2b) [0x7f399dcea58b]
#1	moveDynamicMesh_readUpdate() [0x475c9e]
#2	moveDynamicMesh_readUpdate() [0x4745c1]
#3	moveDynamicMesh_readUpdate() [0x474669]
#4	moveDynamicMesh_readUpdate() [0x53714d]
#5	/lib64/libc.so.6(__libc_start_main+0x7f) [0x7f399c7e159f]
#6	moveDynamicMesh_readUpdate() [0x462719]
Duplicate entry cyclicAMI in runtime selection table fvPatchField#0	/home/dm2/mattijs/OpenFOAM/OpenFOAM-dev/platforms/linux64GccDPInt32Opt/lib/libOpenFOAM.so(_ZN4Foam5error14safePrintStackERSo+0x2b) [0x7fa136ac758b]
#
1	moveDynamicMesh_readUpdate() [0x475e06]
#2	moveDynamicMesh_readUpdate() [0x474633]
#3	moveDynamicMesh_readUpdate() [0x474669]
#4	moveDynamicMesh_readUpdate() [0x53714d]
#5	#0	/home/dm2/mattijs/OpenFOAM/OpenFOAM-dev/platforms/linux64GccDPInt32Opt/lib/libOpenFOAM.so(_ZN4Foam5error14safePrintStackERSo+0x2b) [0x7fd62bbce58b]
#1	moveDynamicMesh_readUpdate() [0x475e06]
#2	moveDynamicMesh_readUpdate() [0x474633]
#3	moveDynamicMesh_readUpdate() [0x474669]
#4	moveDynamicMesh_readUpdate() [0x53714d]
#5	/lib64/libc.so.6(__libc_start_main+0x7f) [0x7fd62a6c559f]
#6	moveDynamicMesh_readUpdate() [0x462719]
/lib64/libc.so.6(__libc_start_main+0x7f) [0x7fa1355be59f]
#6	moveDynamicMesh_readUpdate() [0x462719]
Duplicate entry #0	/home/dm2/mattijs/OpenFOAM/OpenFOAM-dev/platforms/linux64GccDPInt32Opt/lib/libOpenFOAM.so(_ZN4Foam5error14safePrintStackERSo+0x2b) [0x7fee8e81158b]
#1	moveDynamicMesh_readUpdate() [0x475e06]
#2	moveDynamicMesh_readUpdate() [0x474633]
cyclicAMI in runtime selection table fvsPatchField
#3	moveDynamicMesh_readUpdate() [0x474669]
#4	moveDynamicMesh_readUpdate() [0x53714d]
#5	/lib64/libc.so.6(__libc_start_main+0x7f) [0x7fee8d30859f]
#6	moveDynamicMesh_readUpdate() [0x462719]
Duplicate entry cyclicAMI in runtime selection table fvsPatchField
Duplicate entry cyclicAMI in runtime selection table fvsPatchField
#0	/home/dm2/mattijs/OpenFOAM/OpenFOAM-dev/platforms/linux64GccDPInt32Opt/lib/libOpenFOAM.so(_ZN4Foam5error14safePrintStackERSo+0x2b) [0x7f399dcea58b]
#1	moveDynamicMesh_readUpdate() [0x475d52]
#2	moveDynamicMesh_readUpdate() [0x4745fa]
##0	/home/dm2/mattijs/OpenFOAM/OpenFOAM-dev/platforms/linux64GccDPInt32Opt/lib/libOpenFOAM.so(_ZN4Foam5error14safePrintStackERSo+0x2b) [0x7fd62bbce58b]
#1	moveDynamicMesh_readUpdate() [0x4c892a]
#2	moveDynamicMesh_readUpdate() [0x4c826c]
#3	moveDynamicMesh_readUpdate() [0x4c8800]
#0	/home/dm2/mattijs/OpenFOAM/OpenFOAM-dev/platforms/linux64GccDPInt32Opt/lib/libOpenFOAM.so(_ZN4Foam5error14safePrintStackERSo+0x2b) [0x7fa136ac758b]
#1	moveDynamicMesh_readUpdate() [0x4c892a]
#2	moveDynamicMesh_readUpdate() [0x4c826c]
3	moveDynamicMesh_readUpdate() [0x474669]
#4	moveDynamicMesh_readUpdate() [0x53714d]
#5	/lib64/libc.so.6(__libc_start_main+0x7f) [0x7f399c7e159f]
#6	moveDynamicMesh_readUpdate() [0x462719]
Duplicate entry cyclicAMI in runtime selection table fvPatchField
#0	/home/dm2/mattijs/OpenFOAM/OpenFOAM-dev/platforms/linux64GccDPInt32Opt/lib/libOpenFOAM.so(_ZN4Foam5error14safePrintStackERSo+0x2b) [0x7fee8e81158b]
#1	moveDynamicMesh_readUpdate() [0x4c892a]
#2	#3	moveDynamicMesh_readUpdate() [0x4c8800]
#4	moveDynamicMesh_readUpdate() [0x53714d]
#5	/lib64/libc.so.6(__libc_start_main+0x7f) [0x7fa1355be59f]
#6	moveDynamicMesh_readUpdate() [0x462719]
Duplicate entry cyclicAMI in runtime selection table fvsPatchField
#4	moveDynamicMesh_readUpdate() [0x53714d]
#5	/lib64/libc.so.6(__libc_start_main+0x7f) [0x7fd62a6c559f]
#6	moveDynamicMesh_readUpdate() [0x462719]
Duplicate entry cyclicAMI in runtime selection table fvsPatchField
moveDynamicMesh_readUpdate() [0x4c826c]
#3	moveDynamicMesh_readUpdate() [0x4c8800]
#4	moveDynamicMesh_readUpdate() [0x53714d]
#5	/lib64/libc.so.6(__libc_start_main+0x7f) [0x7fee8d30859f]
#6	moveDynamicMesh_readUpdate() [0x462719]
Duplicate entry cyclicAMI in runtime selection table fvsPatchField
#0	/home/dm2/mattijs/OpenFOAM/OpenFOAM-dev/platforms/linux64GccDPInt32Opt/lib/libOpenFOAM.so(_ZN4Foam5error14safePrintStackERSo+0x2b) [0x7f399dcea58b]
#1	moveDynamicMesh_readUpdate() [0x475e06]
#2	moveDynamicMesh_readUpdate() [0x474633]
#3	moveDynamicMesh_readUpdate() [0x474669]
#4	moveDynamicMesh_readUpdate() [0x53714d]
#5	/lib64/libc.so.6(__libc_start_main+0x7f) [0x7f399c7e159f]
#6	moveDynamicMesh_readUpdate() [0x462719]
Duplicate entry cyclicAMI in runtime selection table fvsPatchField
#0	/home/dm2/mattijs/OpenFOAM/OpenFOAM-dev/platforms/linux64GccDPInt32Opt/lib/libOpenFOAM.so(_ZN4Foam5error14safePrintStackERSo+0x2b) [0x7fa136ac758b]
#1	moveDynamicMesh_readUpdate() [0x4c89de]
#2	moveDynamicMesh_readUpdate() [0x4c82a5]
#3	moveDynamicMesh_readUpdate() [0x4c8800]
#4	moveDynamicMesh_readUpdate() [0x53714d]
##0	/home/dm2/mattijs/OpenFOAM/OpenFOAM-dev/platforms/linux64GccDPInt32Opt/lib/libOpenFOAM.so(_ZN4Foam5error14safePrintStackERSo+0x2b) [0x7fd62bbce58b]
#1	moveDynamicMesh_readUpdate() [0x4c89de]
#2	moveDynamicMesh_readUpdate() [0x4c82a5]
#3	moveDynamicMesh_readUpdate() [0x4c8800]5	/lib64/libc.so.6(__libc_start_main+0x7f) [0x7fa1355be59f]
#6	moveDynamicMesh_readUpdate() [0x462719]
Duplicate entry cyclicAMI
#4	moveDynamicMesh_readUpdate() [0x53714d]
#5	/lib64/libc.so.6(__libc_start_main+0x7f) [0x7fd62a6c559f]
#6	moveDynamicMesh_readUpdate() [0x462719]
Duplicate entry cyclicAMI in runtime selection table fvsPatchField in runtime selection table fvsPatchField

#0	/home/dm2/mattijs/OpenFOAM/OpenFOAM-dev/platforms/linux64GccDPInt32Opt/lib/libOpenFOAM.so(_ZN4Foam5error14safePrintStackERSo+0x2b) [0x7fee8e81158b]
#1	moveDynamicMesh_readUpdate() [0x4c89de]
#2	moveDynamicMesh_readUpdate() [0x4c82a5]
#3	moveDynamicMesh_readUpdate() [0x4c8800]
#4	moveDynamicMesh_readUpdate() [0x53714d]
#5	/lib64/libc.so.6(__libc_start_main+0x7f) [0x7fee8d30859f]
#6	moveDynamicMesh_readUpdate() [0x462719]
Duplicate entry cyclicAMI in runtime selection table fvsPatchField
#0	/home/dm2/mattijs/OpenFOAM/OpenFOAM-dev/platforms/linux64GccDPInt32Opt/lib/libOpenFOAM.so(_ZN4Foam5error14safePrintStackERSo+0x2b) [0x7fd62bbce58b]
#1	moveDynamicMesh_readUpdate() [0x4c8a92]
#2	moveDynamicMesh_readUpdate() [0x4c82de]
#3	moveDynamicMesh_readUpdate() [0x4c8800]
#4	moveDynamicMesh_readUpdate() [0x53714d]
#5	/lib64/libc.so.6(__libc_start_main+0x7f) [0x7fd62a6c559f]
#6	moveDynamicMesh_readUpdate() [0x462719]
#0	/home/dm2/mattijs/OpenFOAM/OpenFOAM-dev/platforms/linux64GccDPInt32Opt/lib/libOpenFOAM.so(_ZN4Foam5error14safePrintStackERSo+0x2b) [0x7fa136ac758b]
#1	moveDynamicMesh_readUpdate() [0x4c8a92]
#2	moveDynamicMesh_readUpdate() [0x4c82de]
#3	moveDynamicMesh_readUpdate() [0x4c8800]
#4	moveDynamicMesh_readUpdate() [0x53714d]
#5	/lib64/libc.so.6(__libc_start_main+0x7f) [0x7fa1355be59f]
#6	moveDynamicMesh_readUpdate() [0x462719]
#0	/home/dm2/mattijs/OpenFOAM/OpenFOAM-dev/platforms/linux64GccDPInt32Opt/lib/libOpenFOAM.so(_ZN4Foam5error14safePrintStackERSo+0x2b) [0x7f399dcea58b]
#1	moveDynamicMesh_readUpdate() [0x4c892a]
#2	moveDynamicMesh_readUpdate() [0x4c826c]
#3	moveDynamicMesh_readUpdate() [0x4c8800]
#4	moveDynamicMesh_readUpdate() [0x53714d]
#5	/lib64/libc.so.6(__libc_start_main+0x7f) [0x7f399c7e159f]
#6	moveDynamicMesh_readUpdate() [0x462719]
Duplicate entry cyclicAMI in runtime selection table fvsPatchField
Duplicate entry cyclicAMI in runtime selection table fvsPatchField
Duplicate entry cyclicAMI in runtime selection table fvsPatchField
#0	/home/dm2/mattijs/OpenFOAM/OpenFOAM-dev/platforms/linux64GccDPInt32Opt/lib/libOpenFOAM.so(_ZN4Foam5error14safePrintStackERSo+0x2b) [0x7fee8e81158b]
#1	moveDynamicMesh_readUpdate() [0x4c8a92]
#2	moveDynamicMesh_readUpdate() [0x4c82de]
#3	moveDynamicMesh_readUpdate() [0x4c8800]
#4	moveDynamicMesh_readUpdate() [0x53714d]
#5	/lib64/libc.so.6(__libc_start_main+0x7f) [0x7fee8d30859f]
#6	moveDynamicMesh_readUpdate() [0x462719]
Duplicate entry cyclicAMI in runtime selection table fvsPatchField
#0	/home/dm2/mattijs/OpenFOAM/OpenFOAM-dev/platforms/linux64GccDPInt32Opt/lib/libOpenFOAM.so(_ZN4Foam5error14safePrintStackERSo+0x2b) [0x7fd62bbce58b]
#1	moveDynamicMesh_readUpdate() [0x4c8b92]
#2	moveDynamicMesh_readUpdate() [0x4c83a7]
#3	moveDynamicMesh_readUpdate() [0x4c8800]
#4	moveDynamicMesh_readUpdate() [0x53714d]
#5	/lib64/libc.so.6(__libc_start_main+0x7f) [0x7fd62a6c559f]
#6	moveDynamicMesh_readUpdate() [0x462719]
Duplicate entry cyclicAMI in runtime selection table fvsPatchField
#0	/home/dm2/mattijs/OpenFOAM/OpenFOAM-dev/platforms/linux64GccDPInt32Opt/lib/libOpenFOAM.so(_ZN4Foam5error14safePrintStackERSo+0x2b) [0x7fa136ac758b]
#1	moveDynamicMesh_readUpdate() [0x4c8b92]
#2	moveDynamicMesh_readUpdate() [0x4c83a7]
#3	moveDynamicMesh_readUpdate() [0x4c8800]
#4	moveDynamicMesh_readUpdate() [0x53714d]
#5	/lib64/libc.so.6(__libc_start_main+0x7f) [0x7fa1355be59f]
#6	moveDynamicMesh_readUpdate() [0x462719]
Duplicate entry #0	/home/dm2/mattijs/OpenFOAM/OpenFOAM-dev/platforms/linux64GccDPInt32Opt/lib/libOpenFOAM.so(_ZN4Foam5error14safePrintStackERSo+0x2b) [0x7fee8e81158b]
#1	moveDynamicMesh_readUpdate() [0x4c8b92]
#2	moveDynamicMesh_readUpdate() [0x4c83a7]
#3	moveDynamicMesh_readUpdate() [0x4c8800]
#4	moveDynamicMesh_readUpdate() [0x53714d]
#5	/lib64/libc.so.6(__libc_start_main+0x7f) [0x7fee8d30859f]
#6	moveDynamicMesh_readUpdate() [0x462719]
Duplicate entry cyclicAMI in runtime selection table fvsPatchField
#0	/home/dm2/mattijs/OpenFOAM/OpenFOAM-dev/platforms/linux64GccDPInt32Opt/lib/libOpenFOAM.so(_ZN4Foam5error14safePrintStackERSo+0x2b) [0x7f399dcea58b]
#1	moveDynamicMesh_readUpdate() [0x4c89de]
#2	moveDynamicMesh_readUpdate() [0x4c82a5]
#3	moveDynamicMesh_readUpdate() [0x4c8800]
#4	moveDynamicMesh_readUpdate() [0x53714d]
#5	/lib64/libc.so.6(__libc_start_main+0x7f) [0x7f399c7e159f]
#6	cyclicAMI in runtime selection table fvsPatchField
moveDynamicMesh_readUpdate() [0x462719]
Duplicate entry cyclicAMI in runtime selection table fvsPatchField
#0	/home/dm2/mattijs/OpenFOAM/OpenFOAM-dev/platforms/linux64GccDPInt32Opt/lib/libOpenFOAM.so(_ZN4Foam5error14safePrintStackERSo+0x2b) [0x7fd62bbce58b]
#1	moveDynamicMesh_readUpdate() [0x4c8c46]
#2	moveDynamicMesh_readUpdate() [0x4c83e0]
#3	moveDynamicMesh_readUpdate() [0x4c8800]
#4	moveDynamicMesh_readUpdate() [0x53714d]
#5	/lib64/libc.so.6(__libc_start_main+0x7f) [0x7fd62a6c559f]
#6	moveDynamicMesh_readUpdate() [0x462719]
Duplicate entry cyclicAMI in runtime selection table fvsPatchField
#0	/home/dm2/mattijs/OpenFOAM/OpenFOAM-dev/platforms/linux64GccDPInt32Opt/lib/libOpenFOAM.so(_ZN4Foam5error14safePrintStackERSo+0x2b) [0x7fee8e81158b]
#1	moveDynamicMesh_readUpdate() [0x4c8c46]
#2	moveDynamicMesh_readUpdate() [0x4c83e0]
#3	moveDynamicMesh_readUpdate() [0x4c8800]
#4	moveDynamicMesh_readUpdate() [0x53714d]
#5	/lib64/libc.so.6(__libc_start_main+0x7f) [0x7fee8d30859f]
#6	moveDynamicMesh_readUpdate() [0x462719]
Duplicate entry cyclicAMI in runtime selection table fvsPatchField
#0	/home/dm2/mattijs/OpenFOAM/OpenFOAM-dev/platforms/linux64GccDPInt32Opt/lib/libOpenFOAM.so(_ZN4Foam5error14safePrintStackERSo+0x2b) [0x7f399dcea58b]
#0	/home/dm2/mattijs/OpenFOAM/OpenFOAM-dev/platforms/linux64GccDPInt32Opt/lib/libOpenFOAM.so(_ZN4Foam5error14safePrintStackERSo+0x2b) [0x7fa136ac758b]
#1	moveDynamicMesh_readUpdate() [0x4c8c46]
#2	moveDynamicMesh_readUpdate() [0x4c83e0]
#3	moveDynamicMesh_readUpdate() [0x4c8800]
#4	moveDynamicMesh_readUpdate() [0x53714d]
#5	/lib64/libc.so.6(__libc_start_main+0x7f) [0x7fa1355be59f]
#6	moveDynamicMesh_readUpdate() [0x462719]
Duplicate entry cyclicAMI in runtime selection table fvsPatchField
#1	moveDynamicMesh_readUpdate() [0x4c8a92]
#2	moveDynamicMesh_readUpdate() [0x4c82de]
#3	moveDynamicMesh_readUpdate() [0x4c8800]
#4	moveDynamicMesh_readUpdate() [0x53714d]
#5	/lib64/libc.so.6(__libc_start_main+0x7f) [0x7f399c7e159f]
#6	moveDynamicMesh_readUpdate() [0x462719]
Duplicate entry cyclicAMI in runtime selection table fvsPatchField
#0	/home/dm2/mattijs/OpenFOAM/OpenFOAM-dev/platforms/linux64GccDPInt32Opt/lib/libOpenFOAM.so(_ZN4Foam5error14safePrintStackERSo+0x2b) [0x7fd62bbce58b]
#1	moveDynamicMesh_readUpdate() [0x4c8cfa]
#2	moveDynamicMesh_readUpdate() [0x4c8419]
#3	moveDynamicMesh_readUpdate() [0x4c8800]
#4	moveDynamicMesh_readUpdate() [0x53714d]
#5	/lib64/libc.so.6(__libc_start_main+0x7f) [0x7fd62a6c559f]
#6	moveDynamicMesh_readUpdate() [0x462719]
Duplicate entry cyclicAMI in runtime selection table fvsPatchField
#0	/home/dm2/mattijs/OpenFOAM/OpenFOAM-dev/platforms/linux64GccDPInt32Opt/lib/libOpenFOAM.so(_ZN4Foam5error14safePrintStackERSo+0x2b) [0x7fee8e81158b]
#1	moveDynamicMesh_readUpdate() [0x4c8cfa]
#2	moveDynamicMesh_readUpdate() [0x4c8419]
#3	moveDynamicMesh_readUpdate() [0x4c8800]
#4	moveDynamicMesh_readUpdate() [0x53714d]
#5	/lib64/libc.so.6(__libc_start_main+0x7f) [0x7fee8d30859f]
#6	moveDynamicMesh_readUpdate() [0x462719]
Duplicate entry cyclicAMI in runtime selection table fvsPatchField
#0	/home/dm2/mattijs/OpenFOAM/OpenFOAM-dev/platforms/linux64GccDPInt32Opt/lib/libOpenFOAM.so(_ZN4Foam5error14safePrintStackERSo+0x2b) [0x7fa136ac758b]
#1	moveDynamicMesh_readUpdate() [0x4c8cfa]
#2	moveDynamicMesh_readUpdate() [0x4c8419]
#3	moveDynamicMesh_readUpdate() [0x4c8800]
#4	moveDynamicMesh_readUpdate() [0x53714d]
#5	/lib64/libc.so.6(__libc_start_main+0x7f) [0x7fa1355be59f]
#6	moveDynamicMesh_readUpdate() [0x462719]
#0	/home/dm2/mattijs/OpenFOAM/OpenFOAM-dev/platforms/linux64GccDPInt32Opt/lib/libOpenFOAM.so(_ZN4Foam5error14safePrintStackERSo+0x2b) [0x7f399dcea58b]
#1	moveDynamicMesh_readUpdate() [0x4c8b92]
#2	moveDynamicMesh_readUpdate() [0x4c83a7]
#3	moveDynamicMesh_readUpdate() [0x4c8800]
#4	moveDynamicMesh_readUpdate() [0x53714d]Duplicate entry cyclicAMI in runtime selection table fvsPatchField

#5	/lib64/libc.so.6(__libc_start_main+0x7f) [0x7f399c7e159f]
#6	moveDynamicMesh_readUpdate() [0x462719]
Duplicate entry cyclicAMI in runtime selection table fvsPatchField
#0	/home/dm2/mattijs/OpenFOAM/OpenFOAM-dev/platforms/linux64GccDPInt32Opt/lib/libOpenFOAM.so(_ZN4Foam5error14safePrintStackERSo+0x2b) [0x7fee8e81158b]
#1	moveDynamicMesh_readUpdate() [0x4c8dfa]
#2	moveDynamicMesh_readUpdate() [0x4c84e2]
#3	moveDynamicMesh_readUpdate() [0x4c8800]
#4	moveDynamicMesh_readUpdate() [0x53714d]
#5	/lib64/libc.so.6(__libc_start_main+0x7f) [0x7fee8d30859f]
#6	moveDynamicMesh_readUpdate() [0x462719]
Duplicate entry cyclicAMI in runtime selection table fvsPatchField
#0	/home/dm2/mattijs/OpenFOAM/OpenFOAM-dev/platforms/linux64GccDPInt32Opt/lib/libOpenFOAM.so(_ZN4Foam5error14safePrintStackERSo+0x2b) [0x7fd62bbce58b]
#1	moveDynamicMesh_readUpdate() [0x4c8dfa]
#2	moveDynamicMesh_readUpdate() [0x4c84e2]
#3	moveDynamicMesh_readUpdate() [0x4c8800]
#4	moveDynamicMesh_readUpdate() [0x53714d]
#5	/lib64/libc.so.6(__libc_start_main+0x7f) [0x7fd62a6c559f]
#6	moveDynamicMesh_readUpdate() [0x462719]
Duplicate entry cyclicAMI in runtime selection table fvsPatchField
#0	/home/dm2/mattijs/OpenFOAM/OpenFOAM-dev/platforms/linux64GccDPInt32Opt/lib/libOpenFOAM.so(_ZN4Foam5error14safePrintStackERSo+0x2b) [0x7fa136ac758b]
#1	moveDynamicMesh_readUpdate() [0x4c8dfa]
#2	moveDynamicMesh_readUpdate() [0x4c84e2]
#3	moveDynamicMesh_readUpdate() [0x4c8800]
#4#0	/home/dm2/mattijs/OpenFOAM/OpenFOAM-dev/platforms/linux64GccDPInt32Opt/lib/libOpenFOAM.so(_ZN4Foam5error14safePrintStackERSo+0x2b) [0x7f399dcea58b]
#1	moveDynamicMesh_readUpdate() [0x4c8c46]
	moveDynamicMesh_readUpdate() [0x53714d]
#5	/lib64/libc.so.6(__libc_start_main+0x7f) [0x7fa1355be59f]
#6	moveDynamicMesh_readUpdate() [0x462719]
Duplicate entry cyclicAMI in runtime selection table fvsPatchField
#2	moveDynamicMesh_readUpdate() [0x4c83e0]
#3	moveDynamicMesh_readUpdate() [0x4c8800]
#4	moveDynamicMesh_readUpdate() [0x53714d]
#5	/lib64/libc.so.6(__libc_start_main+0x7f) [0x7f399c7e159f]
#6	moveDynamicMesh_readUpdate() [0x462719]
Duplicate entry cyclicAMI in runtime selection table fvsPatchField
#0	/home/dm2/mattijs/OpenFOAM/OpenFOAM-dev/platforms/linux64GccDPInt32Opt/lib/libOpenFOAM.so(_ZN4Foam5error14safePrintStackERSo+0x2b) [0x7fd62bbce58b]
#1	moveDynamicMesh_readUpdate() [0x4c8eae]
#2	moveDynamicMesh_readUpdate() [0x4c851b]
#3	moveDynamicMesh_readUpdate() [0x4c8800]
#4	moveDynamicMesh_readUpdate() [0x53714d]
#5	/lib64/libc.so.6(__libc_start_main+0x7f) [0x7fd62a6c559f]
#6	moveDynamicMesh_readUpdate() [0x462719]
Duplicate entry cyclicAMI in runtime selection table fvsPatchField
#0	/home/dm2/mattijs/OpenFOAM/OpenFOAM-dev/platforms/linux64GccDPInt32Opt/lib/libOpenFOAM.so(_ZN4Foam5error14safePrintStackERSo+0x2b) [0x7fee8e81158b]
#1	moveDynamicMesh_readUpdate() [0x4c8eae]
#2	moveDynamicMesh_readUpdate() [0x4c851b]
#3	moveDynamicMesh_readUpdate() [0x4c8800]
#4	moveDynamicMesh_readUpdate() [0x53714d]
#5	/lib64/libc.so.6(__libc_start_main+0x7f) [0x7fee8d30859f]
#6	moveDynamicMesh_readUpdate() [0x462719]
Duplicate entry cyclicAMI in runtime selection table fvsPatchField
#0	/home/dm2/mattijs/OpenFOAM/OpenFOAM-dev/platforms/linux64GccDPInt32Opt/lib/libOpenFOAM.so(_ZN4Foam5error14safePrintStackERSo+0x2b) [0x7fa136ac758b]
#1	moveDynamicMesh_readUpdate() [0x4c8eae]
#2	moveDynamicMesh_readUpdate() [0x4c851b]
#3	moveDynamicMesh_readUpdate() [0x4c8800]
#4#0	/home/dm2/mattijs/OpenFOAM/OpenFOAM-dev/platforms/linux64GccDPInt32Opt/lib/libOpenFOAM.so(_ZN4Foam5error14safePrintStackERSo+0x2b) [0x7f399dcea58b]
#1	moveDynamicMesh_readUpdate() [0x4c8cfa]
	moveDynamicMesh_readUpdate() [0x53714d]
#5	/lib64/libc.so.6(__libc_start_main+0x7f) [0x7fa1355be59f]
#6	moveDynamicMesh_readUpdate() [0x462719]
Duplicate entry cyclicAMI in runtime selection table fvsPatchField
#2	moveDynamicMesh_readUpdate() [0x4c8419]
#3	moveDynamicMesh_readUpdate() [0x4c8800]
#4	moveDynamicMesh_readUpdate() [0x53714d]
#5	/lib64/libc.so.6(__libc_start_main+0x7f) [0x7f399c7e159f]
#6	moveDynamicMesh_readUpdate() [0x462719]
Duplicate entry cyclicAMI in runtime selection table fvsPatchField
#0	/home/dm2/mattijs/OpenFOAM/OpenFOAM-dev/platforms/linux64GccDPInt32Opt/lib/libOpenFOAM.so(_ZN4Foam5error14safePrintStackERSo+0x2b) [0x7fee8e81158b]
#1	moveDynamicMesh_readUpdate() [0x4c8f62]
#2	moveDynamicMesh_readUpdate() [0x4c8554]
#3	moveDynamicMesh_readUpdate() [0x4c8800]
#4	moveDynamicMesh_readUpdate() [0x53714d]
#5	/lib64/libc.so.6(__libc_start_main+0x7f) [0x7fee8d30859f]
#6	moveDynamicMesh_readUpdate() [0x462719]
Duplicate entry cyclicAMI in runtime selection table fvsPatchField
#0	/home/dm2/mattijs/OpenFOAM/OpenFOAM-dev/platforms/linux64GccDPInt32Opt/lib/libOpenFOAM.so(_ZN4Foam5error14safePrintStackERSo+0x2b) [0x7fd62bbce58b]
#1	moveDynamicMesh_readUpdate() [0x4c8f62]
#2	moveDynamicMesh_readUpdate() [0x4c8554]
#3	moveDynamicMesh_readUpdate() [0x4c8800]
#4	moveDynamicMesh_readUpdate() [0x53714d]
#5	/lib64/libc.so.6(__libc_start_main+0x7f) [0x7fd62a6c559f]
#6	moveDynamicMesh_readUpdate() [0x462719]
Duplicate entry cyclicAMI in runtime selection table fvsPatchField
#0	/home/dm2/mattijs/OpenFOAM/OpenFOAM-dev/platforms/linux64GccDPInt32Opt/lib/libOpenFOAM.so(_ZN4Foam5error14safePrintStackERSo+0x2b) [0x7fa136ac758b]
#1	moveDynamicMesh_readUpdate() [0x4c8f62]
#2	moveDynamicMesh_readUpdate() [0x4c8554]
#3	moveDynamicMesh_readUpdate() [0x4c8800]
#4#0	/home/dm2/mattijs/OpenFOAM/OpenFOAM-dev/platforms/linux64GccDPInt32Opt/lib/libOpenFOAM.so(_ZN4Foam5error14safePrintStackERSo+0x2b) [0x7f399dcea58b]
#1	moveDynamicMesh_readUpdate() [0x4c8dfa]
#	moveDynamicMesh_readUpdate() [0x53714d]
#5	/lib64/libc.so.6(__libc_start_main+0x7f) [0x7fa1355be59f]
#6	moveDynamicMesh_readUpdate() [0x462719]
Duplicate entry cyclicAMI in runtime selection table fvsPatchField
2	moveDynamicMesh_readUpdate() [0x4c84e2]
#3	moveDynamicMesh_readUpdate() [0x4c8800]
#4	moveDynamicMesh_readUpdate() [0x53714d]
#5	/lib64/libc.so.6(__libc_start_main+0x7f) [0x7f399c7e159f]
#6	moveDynamicMesh_readUpdate() [0x462719]
Duplicate entry cyclicAMI in runtime selection table fvsPatchField
#0	/home/dm2/mattijs/OpenFOAM/OpenFOAM-dev/platforms/linux64GccDPInt32Opt/lib/libOpenFOAM.so(_ZN4Foam5error14safePrintStackERSo+0x2b) [0x7fd62bbce58b]
#1	moveDynamicMesh_readUpdate() [0x4c9062]
#2	moveDynamicMesh_readUpdate() [0x4c861d]
#3	moveDynamicMesh_readUpdate() [0x4c8800]
#4#0	/home/dm2/mattijs/OpenFOAM/OpenFOAM-dev/platforms/linux64GccDPInt32Opt/lib/libOpenFOAM.so(_ZN4Foam5error14safePrintStackERSo+0x2b) [0x7fee8e81158b]
#1	moveDynamicMesh_readUpdate() [0x4c9062]
#2	moveDynamicMesh_readUpdate() [0x4c861d]
#3	moveDynamicMesh_readUpdate() [0x4c8800]
#4	moveDynamicMesh_readUpdate() [0x53714d]
#5	/lib64/libc.so.6(__libc_start_main+0x7f) [0x7fee8d30859f]
#6	moveDynamicMesh_readUpdate() [0x462719]
	moveDynamicMesh_readUpdate() [0x53714d]
#5	/lib64/libc.so.6(__libc_start_main+0x7f) [0x7fd62a6c559f]
#6	moveDynamicMesh_readUpdate() [0x462719]
Duplicate entry cyclicAMI in runtime selection table fvsPatchField
Duplicate entry cyclicAMI in runtime selection table fvsPatchField
#0	/home/dm2/mattijs/OpenFOAM/OpenFOAM-dev/platforms/linux64GccDPInt32Opt/lib/libOpenFOAM.so(_ZN4Foam5error14safePrintStackERSo+0x2b) [0x7fa136ac758b]
#1	moveDynamicMesh_readUpdate() [0x4c9062]
#2	moveDynamicMesh_readUpdate() [0x4c861d]
#3	moveDynamicMesh_readUpdate() [0x4c8800]
#4	moveDynamicMesh_readUpdate() [0x53714d]
#5	/lib64/libc.so.6(__libc_start_main+0x7f) [0x7fa1355be59f]
##0	/home/dm2/mattijs/OpenFOAM/OpenFOAM-dev/platforms/linux64GccDPInt32Opt/lib/libOpenFOAM.so(_ZN4Foam5error14safePrintStackERSo+0x2b) [0x7f399dcea58b]
#1	moveDynamicMesh_readUpdate() [0x4c8eae]
#2	moveDynamicMesh_readUpdate() [0x4c851b]
#3	moveDynamicMesh_readUpdate() [0x4c8800]
6	moveDynamicMesh_readUpdate() [0x462719]
#4	moveDynamicMesh_readUpdate() [0x53714d]
#5	/lib64/libc.so.6(__libc_start_main+0x7f) [0x7f399c7e159f]
#6	Duplicate entry cyclicAMI in runtime selection table fvsPatchField
moveDynamicMesh_readUpdate() [0x462719]
Duplicate entry cyclicAMI in runtime selection table fvsPatchField
#0	/home/dm2/mattijs/OpenFOAM/OpenFOAM-dev/platforms/linux64GccDPInt32Opt/lib/libOpenFOAM.so(_ZN4Foam5error14safePrintStackERSo+0x2b) [0x7fee8e81158b]
#1	moveDynamicMesh_readUpdate() [0x4c9116]
#2	moveDynamicMesh_readUpdate() [0x4c8656]
#3	moveDynamicMesh_readUpdate() [0x4c8800]
#4	moveDynamicMesh_readUpdate() [0x53714d]
#5	/lib64/libc.so.6(__libc_start_main+0x7f) [0x7fee8d30859f]
#6	moveDynamicMesh_readUpdate() [0x462719]
Duplicate entry cyclicAMI in runtime selection table fvsPatchField
#0	/home/dm2/mattijs/OpenFOAM/OpenFOAM-dev/platforms/linux64GccDPInt32Opt/lib/libOpenFOAM.so(_ZN4Foam5error14safePrintStackERSo+0x2b) [0x7fd62bbce58b]
#1	moveDynamicMesh_readUpdate() [0x4c9116]
#2	moveDynamicMesh_readUpdate() [0x4c8656]
#3	moveDynamicMesh_readUpdate() [0x4c8800]
#4	moveDynamicMesh_readUpdate() [0x53714d]
#5	/lib64/libc.so.6(__libc_start_main+0x7f) [0x7fd62a6c559f]
#6	moveDynamicMesh_readUpdate() [0x462719]
Duplicate entry cyclicAMI in runtime selection table fvsPatchField
#0	/home/dm2/mattijs/OpenFOAM/OpenFOAM-dev/platforms/linux64GccDPInt32Opt/lib/libOpenFOAM.so(_ZN4Foam5error14safePrintStackERSo+0x2b) [0x7fa136ac758b]
#1	moveDynamicMesh_readUpdate() [0x4c9116]
#2	#0	/home/dm2/mattijs/OpenFOAM/OpenFOAM-dev/platforms/linux64GccDPInt32Opt/lib/libOpenFOAM.so(_ZN4Foam5error14safePrintStackERSo+0x2b) [0x7f399dcea58b]
#1	moveDynamicMesh_readUpdate() [0x4c8f62]
#moveDynamicMesh_readUpdate() [0x4c8656]
#3	moveDynamicMesh_readUpdate() [0x4c8800]
#4	moveDynamicMesh_readUpdate() [0x53714d]
#5	/lib64/libc.so.6(__libc_start_main+0x7f) [0x7fa1355be59f]
#6	moveDynamicMesh_readUpdate() [0x462719]
2	moveDynamicMesh_readUpdate() [0x4c8554]
#3	moveDynamicMesh_readUpdate() [0x4c8800]
#4	moveDynamicMesh_readUpdate() [0x53714d]
#5	/lib64/libc.so.6(__libc_start_main+0x7f) [0x7f399c7e159f]
#6	moveDynamicMesh_readUpdate() [0x462719]
Duplicate entry cyclicAMI in runtime selection table fvsPatchField
Duplicate entry cyclicAMI in runtime selection table fvsPatchField
#0	/home/dm2/mattijs/OpenFOAM/OpenFOAM-dev/platforms/linux64GccDPInt32Opt/lib/libOpenFOAM.so(_ZN4Foam5error14safePrintStackERSo+0x2b) [0x7fd62bbce58b]
#1	moveDynamicMesh_readUpdate() [0x4c91ca]
#2	moveDynamicMesh_readUpdate() [0x4c868f]
#3	moveDynamicMesh_readUpdate() [0x4c8800]
#4	moveDynamicMesh_readUpdate() [0x53714d]
#5	/lib64/libc.so.6(__libc_start_main+0x7f) [0x7fd62a6c559f]
#6	moveDynamicMesh_readUpdate() [0x462719]
Duplicate entry cyclicAMI in runtime selection table fvsPatchField
#0	/home/dm2/mattijs/OpenFOAM/OpenFOAM-dev/platforms/linux64GccDPInt32Opt/lib/libOpenFOAM.so(_ZN4Foam5error14safePrintStackERSo+0x2b) [0x7fee8e81158b]
#1	moveDynamicMesh_readUpdate() [0x4c91ca]
#2	moveDynamicMesh_readUpdate() [0x4c868f]
#0	/home/dm2/mattijs/OpenFOAM/OpenFOAM-dev/platforms/linux64GccDPInt32Opt/lib/libOpenFOAM.so(_ZN4Foam5error14safePrintStackERSo+0x2b) [0x7fa136ac758b]
##3	moveDynamicMesh_readUpdate() [0x4c8800]
#4	moveDynamicMesh_readUpdate() [0x53714d]
#5	/lib64/libc.so.6(__libc_start_main+0x7f) [0x7fee8d30859f]
#6	moveDynamicMesh_readUpdate() [0x462719]
1	moveDynamicMesh_readUpdate() [0x4c91ca]
#2	moveDynamicMesh_readUpdate() [0x4c868f]
#3#0	/home/dm2/mattijs/OpenFOAM/OpenFOAM-dev/platforms/linux64GccDPInt32Opt/lib/libOpenFOAM.so(_ZN4Foam5error14safePrintStackERSo+0x2b) [0x7f399dcea58b]
#1	moveDynamicMesh_readUpdate() [0x4c9062]
#2	moveDynamicMesh_readUpdate() [0x4c861d]
#3	moveDynamicMesh_readUpdate() [0x4c8800]
#4	moveDynamicMesh_readUpdate() [0x53714d]
#5	/lib64/libc.so.6(__libc_start_main+0x7f) [0x7f399c7e159f]
#6Duplicate entry cyclicAMI in runtime selection table fvsPatchField
	moveDynamicMesh_readUpdate() [0x4c8800]
#4	moveDynamicMesh_readUpdate() [0x53714d]
#5	/lib64/libc.so.6(__libc_start_main+0x7f) [0x7fa1355be59f]
#6	moveDynamicMesh_readUpdate() [0x462719]
	moveDynamicMesh_readUpdate() [0x462719]
Duplicate entry cyclicAMI in runtime selection table fvsPatchField
Duplicate entry cyclicAMI in runtime selection table fvsPatchField
#0	/home/dm2/mattijs/OpenFOAM/OpenFOAM-dev/platforms/linux64GccDPInt32Opt/lib/libOpenFOAM.so(_ZN4Foam5error14safePrintStackERSo+0x2b) [0x7fd62bbce58b]
#1	moveDynamicMesh_readUpdate() [0x4c92ca]
#2	moveDynamicMesh_readUpdate() [0x4c8758]
#3	moveDynamicMesh_readUpdate() [0x4c8800]
#4	moveDynamicMesh_readUpdate() [0x53714d]
#5	/lib64/libc.so.6(__libc_start_main+0x7f) [0x7fd62a6c559f]
#6	moveDynamicMesh_readUpdate() [0x462719]
#0	/home/dm2/mattijs/OpenFOAM/OpenFOAM-dev/platforms/linux64GccDPInt32Opt/lib/libOpenFOAM.so(_ZN4Foam5error14safePrintStackERSo+0x2b) [0x7fee8e81158b]
#1	moveDynamicMesh_readUpdate() [0x4c92ca]
#2	moveDynamicMesh_readUpdate() [0x4c8758]
#3Duplicate entry cyclicAMI in runtime selection table fvsPatchField
#0	/home/dm2/mattijs/OpenFOAM/OpenFOAM-dev/platforms/linux64GccDPInt32Opt/lib/libOpenFOAM.so(_ZN4Foam5error14safePrintStackERSo+0x2b) [0x7fa136ac758b]
#1	moveDynamicMesh_readUpdate() [0x4c92ca]	moveDynamicMesh_readUpdate() [0x4c8800]
#4	moveDynamicMesh_readUpdate() [0x53714d]
#5	/lib64/libc.so.6(__libc_start_main+0x7f) [0x7fee8d30859f]
#6	moveDynamicMesh_readUpdate() [0x462719]
Duplicate entry cyclicAMI in runtime selection table fvsPatchField

#2	moveDynamicMesh_readUpdate() [0x4c8758]
#3	moveDynamicMesh_readUpdate() [0x4c8800]
#4	moveDynamicMesh_readUpdate() [0x53714d]
#5	/lib64/libc.so.6(__libc_start_main+0x7f) [0x7fa1355be59f]#0	/home/dm2/mattijs/OpenFOAM/OpenFOAM-dev/platforms/linux64GccDPInt32Opt/lib/libOpenFOAM.so(_ZN4Foam5error14safePrintStackERSo+0x2b) [0x7f399dcea58b]
#1	moveDynamicMesh_readUpdate() [0x4c9116]
#2	moveDynamicMesh_readUpdate() [0x4c8656]
#3	moveDynamicMesh_readUpdate() [0x4c8800]
#4	moveDynamicMesh_readUpdate() [0x53714d]
#5	/lib64/libc.so.6(__libc_start_main+0x7f) [0x7f399c7e159f]
#6	moveDynamicMesh_readUpdate() [0x462719]

#6	moveDynamicMesh_readUpdate() [0x462719]
Duplicate entry cyclicAMI in runtime selection table fvsPatchField
Duplicate entry cyclicAMI in runtime selection table fvsPatchField
#0	/home/dm2/mattijs/OpenFOAM/OpenFOAM-dev/platforms/linux64GccDPInt32Opt/lib/libOpenFOAM.so(_ZN4Foam5error14safePrintStackERSo+0x2b) [0x7fee8e81158b]
#1	moveDynamicMesh_readUpdate() [0x4c937e]
#2	moveDynamicMesh_readUpdate() [0x4c8791]
#3	moveDynamicMesh_readUpdate() [0x4c8800]
#4	#0	/home/dm2/mattijs/OpenFOAM/OpenFOAM-dev/platforms/linux64GccDPInt32Opt/lib/libOpenFOAM.so(_ZN4Foam5error14safePrintStackERSo+0x2b) [0x7fd62bbce58b]
#1	moveDynamicMesh_readUpdate() [0x4c937e]
#2	moveDynamicMesh_readUpdate() [0x4c8791]
#3	moveDynamicMesh_readUpdate() [0x4c8800]#0	/home/dm2/mattijs/OpenFOAM/OpenFOAM-dev/platforms/linux64GccDPInt32Opt/lib/libOpenFOAM.so(_ZN4Foam5error14safePrintStackERSo+0x2b) [0x7f399dcea58b]
#1	moveDynamicMesh_readUpdate() [0x4c91ca]
#2	moveDynamicMesh_readUpdate() [0x4c868f]
#3	moveDynamicMesh_readUpdate() [0x4c8800]
moveDynamicMesh_readUpdate() [0x53714d]
#5	/lib64/libc.so.6(__libc_start_main+0x7f) [0x7fee8d30859f]
#6	moveDynamicMesh_readUpdate() [0x462719]
Duplicate entry cyclicAMI in runtime selection table fvsPatchField

#4	moveDynamicMesh_readUpdate() [0x53714d]
#5	/lib64/libc.so.6(__libc_start_main+0x7f) [0x7fd62a6c559f]
#6	moveDynamicMesh_readUpdate() [0x462719]
#0	/home/dm2/mattijs/OpenFOAM/OpenFOAM-dev/platforms/linux64GccDPInt32Opt/lib/libOpenFOAM.so(_ZN4Foam5error14safePrintStackERSo+0x2b) [0x7fa136ac758b]
#1	moveDynamicMesh_readUpdate() [0x4c937e]
#2	moveDynamicMesh_readUpdate() [0x4c8791]
#3	moveDynamicMesh_readUpdate() [0x4c8800]
#4	moveDynamicMesh_readUpdate() [0x53714d]
#5	/lib64/libc.so.6(__libc_start_main+0x7f) [0x7fa1355be59f]
#6	moveDynamicMesh_readUpdate() [0x462719]
Duplicate entry cyclicAMI in runtime selection table fvsPatchField
Duplicate entry cyclicAMI in runtime selection table fvsPatchField
#4	moveDynamicMesh_readUpdate() [0x53714d]
#5	/lib64/libc.so.6(__libc_start_main+0x7f) [0x7f399c7e159f]
#6	moveDynamicMesh_readUpdate() [0x462719]
Duplicate entry cyclicAMI in runtime selection table fvsPatchField
#0	/home/dm2/mattijs/OpenFOAM/OpenFOAM-dev/platforms/linux64GccDPInt32Opt/lib/libOpenFOAM.so(_ZN4Foam5error14safePrintStackERSo+0x2b) [0x7fee8e81158b]
#1	moveDynamicMesh_readUpdate() [0x4c9432]
#2	moveDynamicMesh_readUpdate() [0x4c87ca]
#3	moveDynamicMesh_readUpdate() [0x4c8800]
#4	moveDynamicMesh_readUpdate() [0x53714d]
#5	/lib64/libc.so.6(__libc_start_main+0x7f) [0x7fee8d30859f]
#6	moveDynamicMesh_readUpdate() [0x462719]
#0	/home/dm2/mattijs/OpenFOAM/OpenFOAM-dev/platforms/linux64GccDPInt32Opt/lib/libOpenFOAM.so(_ZN4Foam5error14safePrintStackERSo+0x2b) [0x7fa136ac758b]
#1	moveDynamicMesh_readUpdate() [0x4c9432]
#2	moveDynamicMesh_readUpdate() [0x4c87ca]
#3	moveDynamicMesh_readUpdate() [0x4c8800]
#4	moveDynamicMesh_readUpdate() [0x53714d]#0	/home/dm2/mattijs/OpenFOAM/OpenFOAM-dev/platforms/linux64GccDPInt32Opt/lib/libOpenFOAM.so(_ZN4Foam5error14safePrintStackERSo+0x2b) [0x7f399dcea58b]
#1	moveDynamicMesh_readUpdate() [0x4c92ca]
#2	moveDynamicMesh_readUpdate() [0x4c8758]
#3	moveDynamicMesh_readUpdate() [0x4c8800]
#4	moveDynamicMesh_readUpdate() [0x53714d]
#5	/lib64/libc.so.6(__libc_start_main+0x7f) [0x7f399c7e159f]
#6	moveDynamicMesh_readUpdate() [0x462719]

#5	/lib64/libc.so.6(__libc_start_main+0x7f) [0x7fa1355be59f]
#6	moveDynamicMesh_readUpdate() [0x462719]
#0	/home/dm2/mattijs/OpenFOAM/OpenFOAM-dev/platforms/linux64GccDPInt32Opt/lib/libOpenFOAM.so(_ZN4Foam5error14safePrintStackERSo+0x2b) [0x7fd62bbce58b]
#1	moveDynamicMesh_readUpdate() [0x4c9432]
#2	moveDynamicMesh_readUpdate() [0x4c87ca]
Duplicate entry cyclicAMI in runtime selection table fvsPatchField
Duplicate entry cyclicAMI in runtime selection table GAMGInterface
Duplicate entry cyclicAMI in runtime selection table GAMGInterface
#3	moveDynamicMesh_readUpdate() [0x4c8800]
#4	moveDynamicMesh_readUpdate() [0x53714d]
#5	/lib64/libc.so.6(__libc_start_main+0x7f) [0x7fd62a6c559f]
#6	moveDynamicMesh_readUpdate() [0x462719]
Duplicate entry cyclicAMI in runtime selection table GAMGInterface
#0	/home/dm2/mattijs/OpenFOAM/OpenFOAM-dev/platforms/linux64GccDPInt32Opt/lib/libOpenFOAM.so(_ZN4Foam5error14safePrintStackERSo+0x2b) [0x7f399dcea58b]
#1	moveDynamicMesh_readUpdate() [0x4c937e]
#2	moveDynamicMesh_readUpdate() [0x4c8791]
#3	moveDynamicMesh_readUpdate() [0x4c8800]
#4	moveDynamicMesh_readUpdate() [0x53714d]
#0	/home/dm2/mattijs/OpenFOAM/OpenFOAM-dev/platforms/linux64GccDPInt32Opt/lib/libOpenFOAM.so(_ZN4Foam5error14safePrintStackERSo+0x2b) [0x7fee8e81158b]
#1	moveDynamicMesh_readUpdate(_ZN4Foam13GAMGInterface33addlduInterfaceConstructorToTableINS_22cyclicAMIGAMGInterfaceEEC2ERKNS_4wordE+0xac) [0x4dcb78]
#2	moveDynamicMesh_readUpdate() [0x4db36f]
#3	moveDynamicMesh_readUpdate() [0x4db3a5]
#4	moveDynamicMesh_readUpdate() [0x53714d]
##0	/home/dm2/mattijs/OpenFOAM/OpenFOAM-dev/platforms/linux64GccDPInt32Opt/lib/libOpenFOAM.so(_ZN4Foam5error14safePrintStackERSo+0x2b) [0x7fa136ac758b]
#1	moveDynamicMesh_readUpdate(_ZN4Foam13GAMGInterface33addlduInterfaceConstructorToTableINS_22cyclicAMIGAMGInterfaceEEC2ERKNS_4wordE+0xac) [0x4dcb78]
#2	moveDynamicMesh_readUpdate() [0x4db36f]
#3	#5	/lib64/libc.so.6(__libc_start_main+0x7f) [0x7f399c7e159f]
#6	moveDynamicMesh_readUpdate() [0x462719]
Duplicate entry cyclicAMI in runtime selection table fvsPatchField
5	/lib64/libc.so.6(__libc_start_main+0x7f) [0x7fee8d30859f]
#6	moveDynamicMesh_readUpdate() [0x462719]
Duplicate entry cyclicAMI in runtime selection table GAMGInterfaceField
moveDynamicMesh_readUpdate() [0x4db3a5]
#4	moveDynamicMesh_readUpdate() [0x53714d]
#5	/lib64/libc.so.6(__libc_start_main+0x7f) [0x7fa1355be59f]
#6	moveDynamicMesh_readUpdate() [0x462719]
Duplicate entry cyclicAMI in runtime selection table GAMGInterfaceField
#0	/home/dm2/mattijs/OpenFOAM/OpenFOAM-dev/platforms/linux64GccDPInt32Opt/lib/libOpenFOAM.so(_ZN4Foam5error14safePrintStackERSo+0x2b) [0x7fd62bbce58b]
#1	moveDynamicMesh_readUpdate(_ZN4Foam13GAMGInterface33addlduInterfaceConstructorToTableINS_22cyclicAMIGAMGInterfaceEEC2ERKNS_4wordE+0xac) [0x4dcb78]
#2	moveDynamicMesh_readUpdate() [0x4db36f]
#3	moveDynamicMesh_readUpdate() [0x4db3a5]
#4	moveDynamicMesh_readUpdate() [0x53714d]
#5	/lib64/libc.so.6(__libc_start_main+0x7f) [0x7fd62a6c559f]
#6	moveDynamicMesh_readUpdate() [0x462719]
Duplicate entry cyclicAMI in runtime selection table GAMGInterfaceField
#0	/home/dm2/mattijs/OpenFOAM/OpenFOAM-dev/platforms/linux64GccDPInt32Opt/lib/libOpenFOAM.so(_ZN4Foam5error14safePrintStackERSo+0x2b) [0x7f399dcea58b]
#1	moveDynamicMesh_readUpdate() [0x4c9432]
#2	moveDynamicMesh_readUpdate() [0x4c87ca]
#3	moveDynamicMesh_readUpdate() [0x4c8800]
#4	moveDynamicMesh_readUpdate() [0x53714d]#0	/home/dm2/mattijs/OpenFOAM/OpenFOAM-dev/platforms/linux64GccDPInt32Opt/lib/libOpenFOAM.so(_ZN4Foam5error14safePrintStackERSo+0x2b) [0x7fee8e81158b]
#1	moveDynamicMesh_readUpdate() [0x4e5c54]
#2	moveDynamicMesh_readUpdate() [0x4e585f]
#3	moveDynamicMesh_readUpdate() [0x4e58ce]
#4	moveDynamicMesh_readUpdate() [0x53714d]
#5	
#5	/lib64/libc.so.6(__libc_start_main+0x7f) [0x7f399c7e159f]
#6	moveDynamicMesh_readUpdate() [0x462719]
Duplicate entry cyclicAMI in runtime selection table GAMGInterface
#0	/home/dm2/mattijs/OpenFOAM/OpenFOAM-dev/platforms/linux64GccDPInt32Opt/lib/libOpenFOAM.so(_ZN4Foam5error14safePrintStackERSo+0x2b) [0x7fa136ac758b]
#1	moveDynamicMesh_readUpdate() [0x4e5c54]
#2	moveDynamicMesh_readUpdate() [0x4e585f]
#3	moveDynamicMesh_readUpdate() [0x4e58ce]
#4	moveDynamicMesh_readUpdate() [0x53714d]
#5	/lib64/libc.so.6(__libc_start_main+0x7f) [0x7fee8d30859f]
#6	moveDynamicMesh_readUpdate() [0x462719]
Duplicate entry cyclicAMI in runtime selection table GAMGInterfaceField
/lib64/libc.so.6(__libc_start_main+0x7f) [0x7fa1355be59f]
#6	moveDynamicMesh_readUpdate() [0x462719]
Duplicate entry cyclicAMI in runtime selection table GAMGInterfaceField
#0	/home/dm2/mattijs/OpenFOAM/OpenFOAM-dev/platforms/linux64GccDPInt32Opt/lib/libOpenFOAM.so(_ZN4Foam5error14safePrintStackERSo+0x2b) [0x7fd62bbce58b]
#1	moveDynamicMesh_readUpdate() [0x4e5c54]
#2	moveDynamicMesh_readUpdate() [0x4e585f]
#3	moveDynamicMesh_readUpdate() [0x4e58ce]
#4	moveDynamicMesh_readUpdate() [0x53714d]
#5	/lib64/libc.so.6(__libc_start_main+0x7f) [0x7fd62a6c559f]
#6	moveDynamicMesh_readUpdate() [0x462719]
Duplicate entry cyclicAMI in runtime selection table GAMGInterfaceField
#0	/home/dm2/mattijs/OpenFOAM/OpenFOAM-dev/platforms/linux64GccDPInt32Opt/lib/libOpenFOAM.so(_ZN4Foam5error14safePrintStackERSo+0x2b) [0x7f399dcea58b]
#1	moveDynamicMesh_readUpdate(_ZN4Foam13GAMGInterface33addlduInterfaceConstructorToTableINS_22cyclicAMIGAMGInterfaceEEC2ERKNS_4wordE+0xac) [0x4dcb78]
#2	moveDynamicMesh_readUpdate() [0x4db36f]
#3	moveDynamicMesh_readUpdate() [0x4db3a5]
#4	moveDynamicMesh_readUpdate() [0x53714d]#0	/home/dm2/mattijs/OpenFOAM/OpenFOAM-dev/platforms/linux64GccDPInt32Opt/lib/libOpenFOAM.so(_ZN4Foam5error14safePrintStackERSo+0x2b) [0x7fa136ac758b]
#1	moveDynamicMesh_readUpdate() [0x4e5d08]
#2	moveDynamicMesh_readUpdate() [0x4e5898]
#3	moveDynamicMesh_readUpdate() [0x4e58ce]
#0	/home/dm2/mattijs/OpenFOAM/OpenFOAM-dev/platforms/linux64GccDPInt32Opt/lib/libOpenFOAM.so(_ZN4Foam5error14safePrintStackERSo+0x2b) [0x7fee8e81158b]
#1	moveDynamicMesh_readUpdate() [0x4e5d08]
#2	moveDynamicMesh_readUpdate() [0x4e5898]
#3	moveDynamicMesh_readUpdate() [0x4e58ce]
#4	moveDynamicMesh_readUpdate() [0x53714d]
#5	/lib64/libc.so.6(__libc_start_main+0x7f) [0x7fee8d30859f]
#5	/lib64/libc.so.6(__libc_start_main+0x7f) [0x7f399c7e159f]
#6	moveDynamicMesh_readUpdate() [0x462719]
Duplicate entry cyclicAMI in runtime selection table GAMGInterfaceField
#4	moveDynamicMesh_readUpdate() [0x53714d]
#5	/lib64/libc.so.6(__libc_start_main+0x7f) [0x7fa1355be59f]
#6	moveDynamicMesh_readUpdate() [0x462719]

#6	moveDynamicMesh_readUpdate() [0x462719]
Duplicate entry cyclicAMI in runtime selection table facePointPatch
Duplicate entry cyclicAMI in runtime selection table facePointPatch
#0	/home/dm2/mattijs/OpenFOAM/OpenFOAM-dev/platforms/linux64GccDPInt32Opt/lib/libOpenFOAM.so(_ZN4Foam5error14safePrintStackERSo+0x2b) [0x7fd62bbce58b]
#1	moveDynamicMesh_readUpdate() [0x4e5d08]
#2	moveDynamicMesh_readUpdate() [0x4e5898]
#3	moveDynamicMesh_readUpdate() [0x4e58ce]
#4	moveDynamicMesh_readUpdate() [0x53714d]
#5	/lib64/libc.so.6(__libc_start_main+0x7f) [0x7fd62a6c559f]
#6	moveDynamicMesh_readUpdate() [0x462719]
Duplicate entry cyclicAMI in runtime selection table facePointPatch
#0	/home/dm2/mattijs/OpenFOAM/OpenFOAM-dev/platforms/linux64GccDPInt32Opt/lib/libOpenFOAM.so(_ZN4Foam5error14safePrintStackERSo+0x2b) [0x7f399dcea58b]
#1	moveDynamicMesh_readUpdate() [0x4e5c54]
#2	moveDynamicMesh_readUpdate() [0x4e585f]
#3	moveDynamicMesh_readUpdate() [0x4e58ce]
#4	moveDynamicMesh_readUpdate() [0x53714d]
#5	/lib64/libc.so.6(__libc_start_main+0x7f) [0x7f399c7e159f]
#6	moveDynamicMesh_readUpdate() [0x462719]
Duplicate entry cyclicAMI in runtime selection table GAMGInterfaceField
#0	/home/dm2/mattijs/OpenFOAM/OpenFOAM-dev/platforms/linux64GccDPInt32Opt/lib/libOpenFOAM.so(_ZN4Foam5error14safePrintStackERSo+0x2b) [0x7fa136ac758b]
#1	moveDynamicMesh_readUpdate(_ZN4Foam14facePointPatch30addpolyPatchConstructorToTableINS_19cyclicAMIPointPatchEEC1ERKNS_4wordE+0xac) [0x4e92a6]
#2	moveDynamicMesh_readUpdate() [0x4e8a11]
#3	moveDynamicMesh_readUpdate() [0x4e8a47]
#4	moveDynamicMesh_readUpdate() [0x53714d]
#5#0	/home/dm2/mattijs/OpenFOAM/OpenFOAM-dev/platforms/linux64GccDPInt32Opt/lib/libOpenFOAM.so(_ZN4Foam5error14safePrintStackERSo+0x2b) [0x7fee8e81158b]
#1	moveDynamicMesh_readUpdate(_ZN4Foam14facePointPatch30addpolyPatchConstructorToTableINS_19cyclicAMIPointPatchEEC1ERKNS_4wordE+0xac) [0x4e92a6]
#2	moveDynamicMesh_readUpdate() [0x4e8a11]
#3	moveDynamicMesh_readUpdate() [0x4e8a47]
#4	moveDynamicMesh_readUpdate() [0x53714d]
#5	/lib64/libc.so.6(__libc_start_main+0x7f) [0x7fee8d30859f]
#6	moveDynamicMesh_readUpdate() [0x462719]
	/lib64/libc.so.6(__libc_start_main+0x7f) [0x7fa1355be59f]
#6	moveDynamicMesh_readUpdate() [0x462719]
Duplicate entry cyclicAMI in runtime selection table pointPatchField
Duplicate entry cyclicAMI in runtime selection table pointPatchField
#0	/home/dm2/mattijs/OpenFOAM/OpenFOAM-dev/platforms/linux64GccDPInt32Opt/lib/libOpenFOAM.so(_ZN4Foam5error14safePrintStackERSo+0x2b) [0x7fd62bbce58b]
#1	moveDynamicMesh_readUpdate(_ZN4Foam14facePointPatch30addpolyPatchConstructorToTableINS_19cyclicAMIPointPatchEEC1ERKNS_4wordE+0xac) [0x4e92a6]
#2	moveDynamicMesh_readUpdate() [0x4e8a11]
#3	moveDynamicMesh_readUpdate() [0x4e8a47]
#4	moveDynamicMesh_readUpdate() [0x53714d]
#5	/lib64/libc.so.6(__libc_start_main+0x7f) [0x7fd62a6c559f]
#6	moveDynamicMesh_readUpdate() [0x462719]
Duplicate entry cyclicAMI in runtime selection table pointPatchField
#0	/home/dm2/mattijs/OpenFOAM/OpenFOAM-dev/platforms/linux64GccDPInt32Opt/lib/libOpenFOAM.so(_ZN4Foam5error14safePrintStackERSo+0x2b) [0x7f399dcea58b]
#1	moveDynamicMesh_readUpdate() [0x4e5d08]
#2	moveDynamicMesh_readUpdate() [0x4e5898]
#3	moveDynamicMesh_readUpdate() [0x4e58ce]
#4	moveDynamicMesh_readUpdate() [0x53714d]
##0	/home/dm2/mattijs/OpenFOAM/OpenFOAM-dev/platforms/linux64GccDPInt32Opt/lib/libOpenFOAM.so(_ZN4Foam5error14safePrintStackERSo+0x2b) [0x7fee8e81158b]
#1	moveDynamicMesh_readUpdate() [0x4ec180]
#2	moveDynamicMesh_readUpdate() [0x4eb6fb]
#3	moveDynamicMesh_readUpdate() [0x4ebc8f]
#0	/home/dm2/mattijs/OpenFOAM/OpenFOAM-dev/platforms/linux64GccDPInt32Opt/lib/libOpenFOAM.so(_ZN4Foam5error14safePrintStackERSo+0x2b) [0x7fa136ac758b]
#1	moveDynamicMesh_readUpdate() [0x4ec180]
#2	moveDynamicMesh_readUpdate() [0x4eb6fb]
#3	moveDynamicMesh_readUpdate() [0x4ebc8f]
#4	moveDynamicMesh_readUpdate() [0x53714d]
#5	/lib64/libc.so.6(__libc_start_main+0x7f) [0x7fa1355be59f]
5	/lib64/libc.so.6(__libc_start_main+0x7f) [0x7f399c7e159f]
#6	moveDynamicMesh_readUpdate() [0x462719]
Duplicate entry #6	moveDynamicMesh_readUpdate() [0x462719]
Duplicate entry cyclicAMI in runtime selection table pointPatchField
#4	moveDynamicMesh_readUpdate() [0x53714d]
#5	/lib64/libc.so.6(__libc_start_main+0x7f) [0x7fee8d30859f]
#6	moveDynamicMesh_readUpdate() [0x462719]
Duplicate entry cyclicAMI in runtime selection table pointPatchField
cyclicAMI in runtime selection table facePointPatch
#0	/home/dm2/mattijs/OpenFOAM/OpenFOAM-dev/platforms/linux64GccDPInt32Opt/lib/libOpenFOAM.so(_ZN4Foam5error14safePrintStackERSo+0x2b) [0x7fd62bbce58b]
#1	moveDynamicMesh_readUpdate() [0x4ec180]
#2	moveDynamicMesh_readUpdate() [0x4eb6fb]
#3	moveDynamicMesh_readUpdate() [0x4ebc8f]
#4	moveDynamicMesh_readUpdate() [0x53714d]
#5	/lib64/libc.so.6(__libc_start_main+0x7f) [0x7fd62a6c559f]
#6	moveDynamicMesh_readUpdate() [0x462719]
Duplicate entry cyclicAMI in runtime selection table pointPatchField
#0	/home/dm2/mattijs/OpenFOAM/OpenFOAM-dev/platforms/linux64GccDPInt32Opt/lib/libOpenFOAM.so(_ZN4Foam5error14safePrintStackERSo+0x2b) [0x7fee8e81158b]
#1	moveDynamicMesh_readUpdate() [0x4ec234]
#2	moveDynamicMesh_readUpdate() [0x4eb734]
#3	moveDynamicMesh_readUpdate() [0x4ebc8f]
#4	#0	/home/dm2/mattijs/OpenFOAM/OpenFOAM-dev/platforms/linux64GccDPInt32Opt/lib/libOpenFOAM.so(_ZN4Foam5error14safePrintStackERSo+0x2b) [0x7fa136ac758b]
#1	moveDynamicMesh_readUpdate() [0x4ec234]
#2	moveDynamicMesh_readUpdate() [0x4eb734]
#3	moveDynamicMesh_readUpdate() [0x4ebc8f]
#4	moveDynamicMesh_readUpdate() [0x53714d]
#5	/lib64/libc.so.6(__libc_start_main+0x7f) [0x7fa1355be59f]
#6	#0	/home/dm2/mattijs/OpenFOAM/OpenFOAM-dev/platforms/linux64GccDPInt32Opt/lib/libOpenFOAM.so(_ZN4Foam5error14safePrintStackERSo+0x2b) [0x7f399dcea58b]
#1	moveDynamicMesh_readUpdate(_ZN4Foam14facePointPatch30addpolyPatchConstructorToTableINS_19cyclicAMIPointPatchEEC1ERKNS_4wordE+0xac) [0x4e92a6]
#2	moveDynamicMesh_readUpdate() [0x4e8a11]
#3	moveDynamicMesh_readUpdate() [0x4e8a47]
#4	moveDynamicMesh_readUpdate() [0x53714d]
#5	/lib64/libc.so.6(__libc_start_main+0x7f) [0x7f399c7e159f]
#6	moveDynamicMesh_readUpdate() [0x462719]
moveDynamicMesh_readUpdate() [0x53714d]
#5	/lib64/libc.so.6(__libc_start_main+0x7f) [0x7fee8d30859f]
#6	moveDynamicMesh_readUpdate() [0x462719]
Duplicate entry cyclicAMI in runtime selection table pointPatchField
Duplicate entry cyclicAMI in runtime selection table pointPatchField
moveDynamicMesh_readUpdate() [0x462719]
Duplicate entry cyclicAMI in runtime selection table pointPatchField
#0	/home/dm2/mattijs/OpenFOAM/OpenFOAM-dev/platforms/linux64GccDPInt32Opt/lib/libOpenFOAM.so(_ZN4Foam5error14safePrintStackERSo+0x2b) [0x7fd62bbce58b]
#1	moveDynamicMesh_readUpdate() [0x4ec234]
#2	moveDynamicMesh_readUpdate() [0x4eb734]
#3	moveDynamicMesh_readUpdate() [0x4ebc8f]
#4	moveDynamicMesh_readUpdate() [0x53714d]
#5	/lib64/libc.so.6(__libc_start_main+0x7f) [0x7fd62a6c559f]
#6	moveDynamicMesh_readUpdate() [0x462719]
Duplicate entry cyclicAMI in runtime selection table pointPatchField
#0	/home/dm2/mattijs/OpenFOAM/OpenFOAM-dev/platforms/linux64GccDPInt32Opt/lib/libOpenFOAM.so(_ZN4Foam5error14safePrintStackERSo+0x2b) [0x7fee8e81158b]
#1	moveDynamicMesh_readUpdate() [0x4ec2e8]
#2	moveDynamicMesh_readUpdate() [0x4eb76d]
#3	moveDynamicMesh_readUpdate() [0x4ebc8f]
#4#0	/home/dm2/mattijs/OpenFOAM/OpenFOAM-dev/platforms/linux64GccDPInt32Opt/lib/libOpenFOAM.so(_ZN4Foam5error14safePrintStackERSo+0x2b) [0x7f399dcea58b]
#1	moveDynamicMesh_readUpdate() [0x4ec180]
#2	moveDynamicMesh_readUpdate() [0x4eb6fb]
#3	moveDynamicMesh_readUpdate() [0x4ebc8f]
#4	moveDynamicMesh_readUpdate() [0x53714d]
#5	#0	/home/dm2/mattijs/OpenFOAM/OpenFOAM-dev/platforms/linux64GccDPInt32Opt/lib/libOpenFOAM.so(_ZN4Foam5error14safePrintStackERSo+0x2b) [0x7fa136ac758b]
#1	moveDynamicMesh_readUpdate() [0x4ec2e8]
#2	moveDynamicMesh_readUpdate() [0x4eb76d]
#3	moveDynamicMesh_readUpdate() [0x4ebc8f]
#4	moveDynamicMesh_readUpdate() [0x53714d]
#5	/lib64/libc.so.6(__libc_start_main+0x7f) [0x7fa1355be59f]
#6	moveDynamicMesh_readUpdate() [0x462719]
Duplicate entry cyclicAMI in runtime selection table pointPatchField
	moveDynamicMesh_readUpdate() [0x53714d]
#5	/lib64/libc.so.6(__libc_start_main+0x7f) [0x7fee8d30859f]
#6	moveDynamicMesh_readUpdate() [0x462719]
Duplicate entry cyclicAMI in runtime selection table pointPatchField
/lib64/libc.so.6(__libc_start_main+0x7f) [0x7f399c7e159f]
#6	moveDynamicMesh_readUpdate() [0x462719]
Duplicate entry cyclicAMI in runtime selection table pointPatchField
#0	/home/dm2/mattijs/OpenFOAM/OpenFOAM-dev/platforms/linux64GccDPInt32Opt/lib/libOpenFOAM.so(_ZN4Foam5error14safePrintStackERSo+0x2b) [0x7fd62bbce58b]
#1	moveDynamicMesh_readUpdate() [0x4ec2e8]
#2	moveDynamicMesh_readUpdate() [0x4eb76d]
#3	moveDynamicMesh_readUpdate() [0x4ebc8f]
#4	moveDynamicMesh_readUpdate() [0x53714d]
#5	/lib64/libc.so.6(__libc_start_main+0x7f) [0x7fd62a6c559f]
#6	moveDynamicMesh_readUpdate() [0x462719]
Duplicate entry cyclicAMI in runtime selection table pointPatchField
#0	/home/dm2/mattijs/OpenFOAM/OpenFOAM-dev/platforms/linux64GccDPInt32Opt/lib/libOpenFOAM.so(_ZN4Foam5error14safePrintStackERSo+0x2b) [0x7f399dcea58b]
#1	moveDynamicMesh_readUpdate() [0x4ec234]
#2	moveDynamicMesh_readUpdate() [0x4eb734]
#3	moveDynamicMesh_readUpdate() [0x4ebc8f]
#4	moveDynamicMesh_readUpdate() [0x53714d]
#5	/lib64/libc.so.6(__libc_start_main+0x7f) [0x7f399c7e159f]#0	/home/dm2/mattijs/OpenFOAM/OpenFOAM-dev/platforms/linux64GccDPInt32Opt/lib/libOpenFOAM.so(_ZN4Foam5error14safePrintStackERSo+0x2b) [0x7fa136ac758b]
#1	moveDynamicMesh_readUpdate() [0x4ec3e8]
#2	moveDynamicMesh_readUpdate() [0x4eb836]
#3	moveDynamicMesh_readUpdate() [0x4ebc8f]
#4	moveDynamicMesh_readUpdate() [0x53714d]
#5	/lib64/libc.so.6(__libc_start_main+0x7f) [0x7fa1355be59f]
#0	/home/dm2/mattijs/OpenFOAM/OpenFOAM-dev/platforms/linux64GccDPInt32Opt/lib/libOpenFOAM.so(_ZN4Foam5error14safePrintStackERSo+0x2b) [0x7fee8e81158b]
#1	moveDynamicMesh_readUpdate() [0x4ec3e8]
#2	moveDynamicMesh_readUpdate() [0x4eb836]
#3	moveDynamicMesh_readUpdate() [0x4ebc8f]
#4	moveDynamicMesh_readUpdate() [0x53714d]
#5	/lib64/libc.so.6(__libc_start_main+0x7f) [0x7fee8d30859f]
#6	moveDynamicMesh_readUpdate() [0x462719]
Duplicate entry cyclicAMI in runtime selection table pointPatchField

#6	moveDynamicMesh_readUpdate() [0x462719]
Duplicate entry cyclicAMI in runtime selection table pointPatchField
#6	moveDynamicMesh_readUpdate() [0x462719]
Duplicate entry cyclicAMI in runtime selection table pointPatchField
#0	/home/dm2/mattijs/OpenFOAM/OpenFOAM-dev/platforms/linux64GccDPInt32Opt/lib/libOpenFOAM.so(_ZN4Foam5error14safePrintStackERSo+0x2b) [0x7fd62bbce58b]
#1	moveDynamicMesh_readUpdate() [0x4ec3e8]
#2	moveDynamicMesh_readUpdate() [0x4eb836]
#3	moveDynamicMesh_readUpdate() [0x4ebc8f]
#4	moveDynamicMesh_readUpdate() [0x53714d]
#5	/lib64/libc.so.6(__libc_start_main+0x7f) [0x7fd62a6c559f]
#6	moveDynamicMesh_readUpdate() [0x462719]
Duplicate entry cyclicAMI in runtime selection table pointPatchField
#0	/home/dm2/mattijs/OpenFOAM/OpenFOAM-dev/platforms/linux64GccDPInt32Opt/lib/libOpenFOAM.so(_ZN4Foam5error14safePrintStackERSo+0x2b) [0x7fa136ac758b]
#1	moveDynamicMesh_readUpdate() [0x4ec49c]
#2	moveDynamicMesh_readUpdate() [0x4eb86f]
#3	moveDynamicMesh_readUpdate() [0x4ebc8f]
#0	/home/dm2/mattijs/OpenFOAM/OpenFOAM-dev/platforms/linux64GccDPInt32Opt/lib/libOpenFOAM.so(_ZN4Foam5error14safePrintStackERSo+0x2b) [0x7fee8e81158b]
#1	moveDynamicMesh_readUpdate() [0x4ec49c]
#2	moveDynamicMesh_readUpdate() [0x4eb86f]
#3	moveDynamicMesh_readUpdate() [0x4ebc8f]
#4	moveDynamicMesh_readUpdate() [0x53714d]
#0	/home/dm2/mattijs/OpenFOAM/OpenFOAM-dev/platforms/linux64GccDPInt32Opt/lib/libOpenFOAM.so(_ZN4Foam5error14safePrintStackERSo+0x2b) [0x7f399dcea58b]
#1	moveDynamicMesh_readUpdate() [0x4ec2e8]
#2	moveDynamicMesh_readUpdate() [0x4eb76d]
#3	moveDynamicMesh_readUpdate() [0x4ebc8f]
#4	moveDynamicMesh_readUpdate() [0x53714d]
#5	/lib64/libc.so.6(__libc_start_main+0x7f) [0x7f399c7e159f]
#6	moveDynamicMesh_readUpdate() [0x462719]
#4	moveDynamicMesh_readUpdate() [0x53714d]
#5	/lib64/libc.so.6(__libc_start_main+0x7f) [0x7fa1355be59f]
#6	moveDynamicMesh_readUpdate() [0x462719]
#5	/lib64/libc.so.6(__libc_start_main+0x7f) [0x7fee8d30859f]
#6	moveDynamicMesh_readUpdate() [0x462719]
Duplicate entry cyclicAMIDuplicate entry cyclicAMI in runtime selection table pointPatchField
 in runtime selection table pointPatchField
Duplicate entry cyclicAMI in runtime selection table pointPatchField
#0	/home/dm2/mattijs/OpenFOAM/OpenFOAM-dev/platforms/linux64GccDPInt32Opt/lib/libOpenFOAM.so(_ZN4Foam5error14safePrintStackERSo+0x2b) [0x7fd62bbce58b]
#1	moveDynamicMesh_readUpdate() [0x4ec49c]
#2	moveDynamicMesh_readUpdate() [0x4eb86f]
#3	moveDynamicMesh_readUpdate() [0x4ebc8f]
#4	moveDynamicMesh_readUpdate() [0x53714d]
#5	/lib64/libc.so.6(__libc_start_main+0x7f) [0x7fd62a6c559f]
#6	moveDynamicMesh_readUpdate() [0x462719]
Duplicate entry cyclicAMI in runtime selection table pointPatchField
#0	/home/dm2/mattijs/OpenFOAM/OpenFOAM-dev/platforms/linux64GccDPInt32Opt/lib/libOpenFOAM.so(_ZN4Foam5error14safePrintStackERSo+0x2b) [0x7f399dcea58b]
#1	moveDynamicMesh_readUpdate() [0x4ec3e8]
#2	moveDynamicMesh_readUpdate() [0x4eb836]
#3	moveDynamicMesh_readUpdate() [0x4ebc8f]
#4	moveDynamicMesh_readUpdate() [0x53714d]
[...]
[1] tgtFace:105 centre:(1.84814 -0.0012491 1.221) area:0.0038092 normal:(0.00228421 -0.999994 -0.00271134) overlapped by:0
[1] tgtFace:106 centre:(1.84921 -0.000827613 1.15958) area:0.00377054 normal:(-0.00178625 -0.999937 -0.0110385) overlapped by:0
[1] tgtFace:107 centre:(1.75 -6.16071e-06 4.74997) area:0.250005 normal:(2.96917e-06 -1 3.85081e-06) overlapped by:0
[1] tgtFace:108 centre:(1.75 -8.96968e-06 4.24996) area:0.25001 normal:(4.16e-06 -1 7.38469e-06) overlapped by:0
[1] tgtFace:109 centre:(1.81286 -0.00037287 1.81214) area:0.0156271 normal:(0.000514653 -0.999999 0.0012032) overlapped by:0
[1] tgtFace:110 centre:(1.81269 -0.000247158 1.93717) area:0.0156321 normal:(0.000322629 -1 0.000808921) overlapped by:0
[1] tgtFace:111 centre:(1.8126 -0.000163336 2.06222) area:0.015633 normal:(0.000205317 -1 0.000532117) overlapped by:0
[1] tgtFace:112 centre:(1.81255 -0.000108787 2.18727) area:0.0156321 normal:(0.000133135 -1 0.000340451) overlapped by:0
[1] tgtFace:113 centre:(1.81364 -0.000808075 1.56232) area:0.0155832 normal:(0.00135802 -0.999996 0.00231856) overlapped by:0
[1] tgtFace:114 centre:(1.81315 -0.00055594 1.68717) area:0.0156137 normal:(0.000832665 -0.999998 0.00172996) overlapped by:0
[1] tgtFace:115 centre:(1.81252 -7.46428e-05 2.31232) area:0.0156303 normal:(8.84153e-05 -1 0.000205713) overlapped by:0
[1] tgtFace:116 centre:(1.81251 -5.50371e-05 2.43734) area:0.0156284 normal:(5.46731e-05 -1 0.000107918) overlapped by:0
[1] tgtFace:117 centre:(1.86996 -0.0301605 0.34455) area:0.00387743 normal:(-0.999836 -0.0126584 -0.01292) overlapped by:0
[1] tgtFace:118 centre:(1.86802 -0.0214118 0.0320423) area:0.00409102 normal:(0.999977 0.00191644 -0.00645795) overlapped by:0
[1] tgtFace:119 centre:(1.86867 -0.0222997 0.0953326) area:0.00403585 normal:(0.999892 0.00425753 -0.0140683) overlapped by:0
[1] tgtFace:120 centre:(1.86969 -0.0261866 0.220281) area:0.00393963 normal:(0.999843 0.0123971 -0.012696) overlapped by:0
[1] tgtFace:121 centre:(1.8692 -0.0239876 0.158079) area:0.00400428 normal:(0.99997 0.00726016 -0.00251224) overlapped by:0
[1] tgtFace:122 centre:(1.875 -3.76269e-05 2.62488) area:0.0625048 normal:(4.71371e-05 -1 5.36389e-05) overlapped by:0
[1] tgtFace:123 centre:(1.96491 -0.0292019 0.250809) area:0.00395323 normal:(-0.00388078 -0.000414173 -0.999992) overlapped by:0
[1] tgtFace:124 centre:(1.90169 -0.0282567 0.251133) area:0.00397733 normal:(-0.00634741 0.000193023 -0.99998) overlapped by:0
[1] tgtFace:125 centre:(1.99644 -0.0298136 0.281868) area:0.00390647 normal:(0.999994 0.00338889 -0.000194445) overlapped by:0
[1] tgtFace:126 centre:(1.96509 -0.0609281 0.28201) area:0.00392534 normal:(-0.00579995 -0.999916 -0.0115661) overlapped by:0
[1] tgtFace:127 centre:(1.99649 -0.030548 0.344268) area:0.00389037 normal:(0.999997 0.00187318 -0.00138895) overlapped by:0
[1] tgtFace:128 centre:(1.90216 -0.0603526 0.282251) area:0.00392173 normal:(-0.0126138 -0.999726 -0.0197221) overlapped by:0
[1] tgtFace:129 centre:(1.96503 -0.0616549 0.3444) area:0.003931 normal:(-0.00278313 -0.999927 -0.0117338) overlapped by:0
[1] tgtFace:130 centre:(1.90193 -0.0614375 0.344622) area:0.00393615 normal:(-0.00420632 -0.999877 -0.015078) overlapped by:0
[1] tgtFace:131 centre:(1.93889 0.000417048 0.93925) area:0.0158444 normal:(-0.018927 -0.99978 0.00903341) overlapped by:0
[1] tgtFace:132 centre:(1.93606 -0.00126914 0.812991) area:0.0158588 normal:(0.000684775 -0.999895 0.0144691) overlapped by:0
[1] tgtFace:133 centre:(1.94179 -1.39232e-05 1.06559) area:0.0151596 normal:(-0.00941187 -0.999887 -0.0116892) overlapped by:0
[1] tgtFace:134 centre:(1.93907 -0.000854013 1.43799) area:0.0155043 normal:(0.00198567 -0.999996 0.00182042) overlapped by:0
[1] tgtFace:135 centre:(2.05872 0.00363326 0.0627486) area:0.0158847 normal:(-0.0193433 -0.999794 -0.00622151) overlapped by:0
[1] tgtFace:136 centre:(2.0645 -0.000646286 1.06424) area:0.0154365 normal:(-0.000973405 -0.999997 -0.00209004) overlapped by:0
[1] tgtFace:137 centre:(2.06259 -0.000105396 2.0624) area:0.0156232 normal:(0.000240087 -1 0.000331928) overlapped by:0
[1] tgtFace:138 centre:(2.25 -1.34292e-05 3.24995) area:0.250003 normal:(1.66888e-05 -1 7.79444e-06) overlapped by:0
[1] tgtFace:139 centre:(2.25 -6.67996e-06 4.24997) area:0.250005 normal:(4.99847e-06 -1 5.06619e-06) overlapped by:0
[1] tgtFace:140 centre:(1.93178 0.00738968 0.063061) area:0.0160801 normal:(-0.04201 -0.999069 -0.00984417) overlapped by:0
[1] tgtFace:141 centre:(2.06332 -0.000671401 0.938773) area:0.0156586 normal:(-0.00154948 -0.999996 0.00249446) overlapped by:0
[1] tgtFace:142 centre:(1.93769 -0.000203428 1.93732) area:0.015623 normal:(0.000375335 -1 0.000652974) overlapped by:0
[1] tgtFace:143 centre:(1.93446 -0.00192806 0.562399) area:0.0157391 normal:(0.00968164 -0.999894 -0.010896) overlapped by:0
[1] tgtFace:144 centre:(2.06266 -0.000156764 1.93741) area:0.0156187 normal:(0.000370586 -1 0.000490381) overlapped by:0
[1] tgtFace:145 centre:(2.05982 -0.00028984 0.437742) area:0.0157662 normal:(0.000698812 -0.999968 -0.00798442) overlapped by:0
[1] tgtFace:146 centre:(1.93259 0.00479147 0.1886) area:0.0158427 normal:(-0.0289896 -0.999085 -0.0314524) overlapped by:0
[1] tgtFace:147 centre:(2.06052 -0.00112446 0.562601) area:0.0157221 normal:(0.00453907 -0.999976 -0.0053061) overlapped by:0
[1] tgtFace:148 centre:(1.93534 -0.00240426 0.687599) area:0.0157938 normal:(0.0111997 -0.999933 0.00292579) overlapped by:0
[1] tgtFace:149 centre:(1.94108 -0.000933605 1.18972) area:0.0152407 normal:(0.00113107 -0.999995 -0.00287156) overlapped by:0
[1] tgtFace:150 centre:(2.06361 -0.000623064 1.43797) area:0.0155262 normal:(0.00172356 -0.999998 0.0012873) overlapped by:0
[1] tgtFace:151 centre:(1.875 -2.78381e-05 2.87489) area:0.0625045 normal:(3.22719e-05 -1 2.70485e-05) overlapped by:0
[1] tgtFace:152 centre:(1.9376 -0.000135438 2.06233) area:0.0156267 normal:(0.000240179 -1 0.000435214) overlapped by:0
[1] tgtFace:153 centre:(1.93993 -0.00102573 1.31367) area:0.0154051 normal:(0.00228571 -0.999997 0.000970315) overlapped by:0
[1] tgtFace:154 centre:(2.05917 0.0023722 0.188003) area:0.0157838 normal:(-0.0122701 -0.999829 -0.0138198) overlapped by:0
[1] tgtFace:155 centre:(2.18526 0.00118425 0.187753) area:0.0157508 normal:(-0.00660575 -0.999959 -0.00614958) overlapped by:0
[1] tgtFace:156 centre:(2.18503 0.0017856 0.062612) area:0.0157886 normal:(-0.00989987 -0.999945 -0.00343246) overlapped by:0
[1] tgtFace:157 centre:(2.06452 -0.000796804 1.18893) area:0.0154127 normal:(0.0014425 -0.999999 -0.000315722) overlapped by:0
[1] tgtFace:158 centre:(2.1886 -0.000600159 1.18836) area:0.0155102 normal:(0.00172606 -0.999998 0.000366144) overlapped by:0
[1] tgtFace:159 centre:(2.18848 -0.000621672 1.06349) area:0.0155351 normal:(0.0013479 -0.999999 -2.36635e-05) overlapped by:0
[1] tgtFace:160 centre:(2.125 -2.01799e-05 2.87494) area:0.0625013 normal:(2.89853e-05 -1 1.65691e-05) overlapped by:0
[1] tgtFace:161 centre:(2.18791 -0.000679188 0.938322) area:0.0156246 normal:(0.00143472 -0.999999 0.000928024) overlapped by:0
[1] tgtFace:162 centre:(2.1872 -0.000821355 0.813035) area:0.0156835 normal:(0.00259195 -0.999996 0.00131859) overlapped by:0
[1] tgtFace:163 centre:(2.06191 -0.00111879 0.813155) area:0.0157426 normal:(0.0021588 -0.999987 0.00462945) overlapped by:0
[1] tgtFace:164 centre:(1.93847 -0.000635158 1.5626) area:0.0155637 normal:(0.00140269 -0.999998 0.00170907) overlapped by:0
[1] tgtFace:165 centre:(2.06323 -0.000468558 1.56269) area:0.0155675 normal:(0.00126592 -0.999998 0.00119982) overlapped by:0
[1] tgtFace:166 centre:(2.18585 -0.000204184 0.437705) area:0.0157119 normal:(0.000561265 -0.99999 -0.00451279) overlapped by:0
[1] tgtFace:167 centre:(2.18554 0.0004382 0.312761) area:0.015726 normal:(-0.0025652 -0.99998 -0.00576604) overlapped by:0
[1] tgtFace:168 centre:(2.05951 0.000842356 0.312943) area:0.0157578 normal:(-0.00372226 -0.999939 -0.010441) overlapped by:0
[1] tgtFace:169 centre:(2.31125 0.000191244 0.312657) area:0.0156988 normal:(-0.00136989 -0.999995 -0.00296103) overlapped by:0
[1] tgtFace:170 centre:(2.31147 -0.000144484 0.437656) area:0.0156871 normal:(0.000386758 -0.999997 -0.00240919) overlapped by:0
[1] tgtFace:171 centre:(2.31093 0.000847826 0.0625528) area:0.01573 normal:(-0.00499176 -0.999986 -0.00177943) overlapped by:0
[1] tgtFace:172 centre:(2.31107 0.000556333 0.187632) area:0.015714 normal:(-0.00338196 -0.99999 -0.00287252) overlapped by:0
[1] tgtFace:173 centre:(2.31172 -0.000393977 0.562672) area:0.0156777 normal:(0.00163683 -0.999997 -0.0015865) overlapped by:0
[1] tgtFace:174 centre:(2.0611 -0.00143247 0.687764) area:0.0157549 normal:(0.00537014 -0.999986 0.000330803) overlapped by:0
[1] tgtFace:175 centre:(2.18666 -0.000877361 0.687797) area:0.0157033 normal:(0.00346937 -0.999994 -0.000449789) overlapped by:0
[1] tgtFace:176 centre:(2.18623 -0.000667948 0.562681) area:0.0157008 normal:(0.0027292 -0.999992 -0.00292005) overlapped by:0
[1] tgtFace:177 centre:(2.18821 -0.000429487 1.43786) area:0.015556 normal:(0.00138568 -0.999999 0.000872008) overlapped by:0
[1] tgtFace:178 centre:(2.18844 -0.000530556 1.31311) area:0.0155281 normal:(0.00168825 -0.999998 0.00075396) overlapped by:0
[1] tgtFace:179 centre:(2.06408 -0.000759794 1.3134) area:0.0154697 normal:(0.00200277 -0.999998 0.000921798) overlapped by:0
[1] tgtFace:180 centre:(1.93751 -4.64216e-05 2.43739) area:0.0156265 normal:(8.30976e-05 -1 8.7267e-05) overlapped by:0
[1] tgtFace:181 centre:(2.06252 -3.68776e-05 2.43743) area:0.0156256 normal:(6.95585e-05 -1 6.81194e-05) overlapped by:0
[1] tgtFace:182 centre:(2.25 -9.71241e-06 3.74996) area:0.250007 normal:(8.92961e-06 -1 7.06334e-06) overlapped by:0
[1] tgtFace:183 centre:(1.93784 -0.000303661 1.81234) area:0.0156144 normal:(0.000589498 -0.999999 0.000952203) overlapped by:0
[1] tgtFace:184 centre:(2.18763 -0.000113685 1.93746) area:0.0156178 normal:(0.000318522 -1 0.000344682) overlapped by:0
[1] tgtFace:185 centre:(2.18771 -0.000165344 1.8125) area:0.0156107 normal:(0.000482276 -1 0.000482628) overlapped by:0
[1] tgtFace:186 centre:(2.06278 -0.00023112 1.81244) area:0.0156099 normal:(0.000570226 -1 0.000700559) overlapped by:0
[1] tgtFace:187 centre:(1.93756 -9.06894e-05 2.18735) area:0.0156278 normal:(0.00015601 -1 0.000280808) overlapped by:0
[1] tgtFace:188 centre:(2.12501 -2.55057e-05 2.62494) area:0.0624988 normal:(4.77443e-05 -1 2.66124e-05) overlapped by:0
[1] tgtFace:189 centre:(1.93808 -0.000446003 1.68741) area:0.0155969 normal:(0.000921102 -0.999999 0.00132991) overlapped by:0
[1] tgtFace:190 centre:(2.06296 -0.000334375 1.68753) area:0.0155941 normal:(0.000864517 -0.999999 0.000954857) overlapped by:0
[1] tgtFace:191 centre:(2.18783 -0.000235651 1.68756) area:0.0155988 normal:(0.000716244 -1 0.000644121) overlapped by:0
[1] tgtFace:192 centre:(2.18799 -0.000325538 1.56268) area:0.0155807 normal:(0.00102687 -0.999999 0.000797915) overlapped by:0
[1] tgtFace:193 centre:(1.93753 -6.25071e-05 2.31237) area:0.0156275 normal:(0.000105568 -1 0.000170089) overlapped by:0
[1] tgtFace:194 centre:(2.06255 -7.11312e-05 2.18741) area:0.0156252 normal:(0.000156699 -1 0.000216419) overlapped by:0
[1] tgtFace:195 centre:(2.18754 -5.27517e-05 2.18745) area:0.0156239 normal:(0.000137277 -1 0.000156356) overlapped by:0
[1] tgtFace:196 centre:(2.18757 -7.73392e-05 2.06245) area:0.0156219 normal:(0.000208666 -1 0.000237144) overlapped by:0
[1] tgtFace:197 centre:(2.25 -4.71142e-06 4.74998) area:0.250003 normal:(2.82786e-06 -1 2.80782e-06) overlapped by:0
[1] tgtFace:198 centre:(2.18751 -2.81239e-05 2.43745) area:0.0156247 normal:(7.04771e-05 -1 4.69963e-05) overlapped by:0
[1] tgtFace:199 centre:(2.18752 -3.70209e-05 2.31245) area:0.0156247 normal:(9.30369e-05 -1 9.53674e-05) overlapped by:0
[1] tgtFace:200 centre:(2.06253 -4.93707e-05 2.31242) area:0.0156258 normal:(0.000104506 -1 0.000131776) overlapped by:0
[1] tgtFace:201 centre:(1.965 -0.000659335 0.469024) area:0.00396913 normal:(0.000474346 -0.999948 -0.0101437) overlapped by:0
[1] tgtFace:202 centre:(1.90133 -0.000976169 0.468915) area:0.00398279 normal:(0.00951092 -0.999877 -0.0124387) overlapped by:0
[1] tgtFace:203 centre:(1.96477 -1.92663e-05 0.406629) area:0.00395776 normal:(0.000193364 -0.999946 -0.0103757) overlapped by:0
[1] tgtFace:204 centre:(1.90106 -0.000144636 0.40664) area:0.00398105 normal:(0.00372643 -0.99989 -0.0143733) overlapped by:0
[1] tgtFace:205 centre:(1.96488 -0.0308346 0.375502) area:0.00394621 normal:(0.00155353 0.00167172 0.999997) overlapped by:0
[1] tgtFace:206 centre:(1.90141 -0.0307699 0.37562) area:0.00395966 normal:(0.00219468 0.00361296 0.999991) overlapped by:0
[1] tgtFace:1344 centre:(2 0.499993 5.49998) area:1 normal:(-1 -8.52624e-09 8.69731e-07) overlapped by:0
[1] tgtFace:1345 centre:(2 0.499996 6.49999) area:1 normal:(-1 -2.84277e-08 1.9691e-07) overlapped by:0
[1] tgtFace:1346 centre:(2 0.499998 7.5) area:1 normal:(-1 -3.59415e-08 4.48732e-08) overlapped by:0
[1] tgtFace:1347 centre:(2.5 0.249986 3.24997) area:0.249993 normal:(-1 -1.825e-06 -3.48017e-06) overlapped by:0
[1] tgtFace:1348 centre:(2.5 0.249992 4.24998) area:0.25 normal:(-1 -6.78095e-07 2.06415e-07) overlapped by:0
[1] tgtFace:1349 centre:(2.25 0.249994 4.99998) area:0.249998 normal:(1.28182e-05 -2.36349e-06 -1) overlapped by:0
[1] tgtFace:1350 centre:(2.3738 0.0629544 0.0625384) area:0.0156146 normal:(-1 6.47671e-06 0.000694854) overlapped by:0
[1] tgtFace:1351 centre:(2.37424 0.0623106 0.437645) area:0.0156094 normal:(-0.999999 0.000378134 0.00157015) overlapped by:0
[1] tgtFace:1352 centre:(2.37444 0.0621467 0.562673) area:0.0156143 normal:(-0.999998 0.000549027 0.00174861) overlapped by:0
[1] tgtFace:1353 centre:(2.25067 0.0619572 1.06326) area:0.0156198 normal:(-0.999998 0.00044216 0.00168479) overlapped by:0
[1] tgtFace:1354 centre:(2.25067 0.186946 1.06329) area:0.0156162 normal:(-0.999999 -0.000389426 0.00135745) overlapped by:0
[1] tgtFace:1355 centre:(2.25074 0.187041 1.18817) area:0.0156037 normal:(-1 -0.000525584 -0.000270815) overlapped by:0
[1] tgtFace:1356 centre:(2.25076 0.0620199 1.18816) area:0.0156075 normal:(-1 0.000178004 -0.000198015) overlapped by:0
[1] tgtFace:1357 centre:(2.25 0.124979 2.87495) area:0.0624975 normal:(-1 -3.93704e-06 -1.06777e-05) overlapped by:0
[1] tgtFace:1358 centre:(2.25033 0.0618842 0.938196) area:0.0156396 normal:(-0.999993 0.000827488 0.00372511) overlapped by:0
[1] tgtFace:1359 centre:(2.25039 0.18683 0.938244) area:0.0156371 normal:(-0.999995 0.000169219 0.00310937) overlapped by:0
[1] tgtFace:1360 centre:(2.24987 0.0617906 0.813003) area:0.0156396 normal:(-0.999993 0.00114149 0.00362242) overlapped by:0
[1] tgtFace:1361 centre:(2.37394 0.187587 0.187606) area:0.0156053 normal:(-0.999999 0.000560436 0.00110057) overlapped by:0
[1] tgtFace:1362 centre:(2.37383 0.187755 0.0625408) area:0.0156047 normal:(-1 0.000561858 0.00068104) overlapped by:0
[1] tgtFace:1363 centre:(2.3739 0.0627673 0.187598) area:0.0156112 normal:(-0.999999 4.45514e-05 0.00104858) overlapped by:0
[1] tgtFace:1364 centre:(2.3741 0.187374 0.312647) area:0.0156074 normal:(-0.999999 0.000623962 0.00148516) overlapped by:0
[1] tgtFace:1365 centre:(2.3743 0.187174 0.437674) area:0.0156113 normal:(-0.999998 0.000733296 0.0017365) overlapped by:0
[1] tgtFace:1366 centre:(2.37405 0.062532 0.312629) area:0.0156088 normal:(-0.999999 0.000176839 0.0013398) overlapped by:0
[1] tgtFace:1367 centre:(2.31264 0.186902 0.875538) area:0.0156035 normal:(-0.00208913 0.00031844 -0.999998) overlapped by:0
[1] tgtFace:1368 centre:(2.37496 0.187008 0.812862) area:0.0156307 normal:(-0.999998 0.000438489 0.00179257) overlapped by:0
[1] tgtFace:1369 centre:(2.31242 0.124383 0.812914) area:0.0156465 normal:(-0.00240645 0.999997 -0.00075039) overlapped by:0
[1] tgtFace:1370 centre:(2.31221 0.0618846 0.750329) area:0.0156285 normal:(-0.000897122 0.000243044 -1) overlapped by:0
[1] tgtFace:1371 centre:(2.37474 0.186979 0.687774) area:0.0156261 normal:(-0.999998 0.000670269 0.00170623) overlapped by:0
[1] tgtFace:1372 centre:(2.37453 0.187032 0.562711) area:0.0156177 normal:(-0.999998 0.000770919 0.00179133) overlapped by:0
[1] tgtFace:1373 centre:(2.37467 0.0620659 0.687735) area:0.015623 normal:(-0.999998 0.000584364 0.00181396) overlapped by:0
[1] tgtFace:1374 centre:(2.25065 0.187123 1.31298) area:0.0156023 normal:(-0.999999 -0.000434268 -0.00104733) overlapped by:0
[1] tgtFace:1375 centre:(2.25053 0.062172 1.43779) area:0.0156086 normal:(-0.999999 -2.39529e-06 -0.0012673) overlapped by:0
[1] tgtFace:1376 centre:(2.25051 0.187197 1.4378) area:0.0156064 normal:(-0.999999 -0.00029625 -0.00121084) overlapped by:0
[1] tgtFace:1377 centre:(2.25068 0.0620928 1.31297) area:0.0156055 normal:(-0.999999 4.65533e-05 -0.00108053) overlapped by:0
[1] tgtFace:1378 centre:(2.5 0.249988 3.74997) area:0.249999 normal:(-1 -1.13662e-06 -6.09781e-07) overlapped by:0
[1] tgtFace:1379 centre:(2.375 0.124984 2.99996) area:0.0624983 normal:(-8.41218e-05 7.35611e-06 1) overlapped by:0
[1] tgtFace:1380 centre:(2.25038 0.0622479 1.56266) area:0.0156131 normal:(-0.999999 -1.45271e-05 -0.00111706) overlapped by:0
[1] tgtFace:1381 centre:(2.25037 0.187263 1.56265) area:0.0156116 normal:(-0.999999 -0.000180297 -0.00106931) overlapped by:0
[1] tgtFace:1382 centre:(2.25025 0.187319 1.68756) area:0.0156162 normal:(-1 -0.000101142 -0.000826663) overlapped by:0
[1] tgtFace:1383 centre:(2.25026 0.0623134 1.68756) area:0.0156172 normal:(-1 -1.43805e-05 -0.000858402) overlapped by:0
[1] tgtFace:1384 centre:(2.25001 0.124976 2.62496) area:0.0624958 normal:(-1 -4.52912e-06 -2.66695e-05) overlapped by:0
[1] tgtFace:1385 centre:(2.25016 0.187365 1.8125) area:0.0156197 normal:(-1 -5.3731e-05 -0.000588416) overlapped by:0
[1] tgtFace:1386 centre:(2.2501 0.0624051 1.93748) area:0.0156224 normal:(-1 -9.49896e-06 -0.000405072) overlapped by:0
[1] tgtFace:1387 centre:(2.2501 0.187401 1.93748) area:0.015622 normal:(-1 -2.79378e-05 -0.000395352) overlapped by:0
[1] tgtFace:1388 centre:(2.25017 0.0623656 1.81251) area:0.0156203 normal:(-1 -1.1764e-05 -0.000606768) overlapped by:0
[1] tgtFace:1389 centre:(2.5 0.249994 4.74998) area:0.25 normal:(-1 -4.35556e-07 3.33637e-07) overlapped by:0
[1] tgtFace:1390 centre:(2.25006 0.0624337 2.06247) area:0.0156237 normal:(-1 -7.87712e-06 -0.00025872) overlapped by:0
[1] tgtFace:1391 centre:(2.25006 0.187429 2.06246) area:0.0156234 normal:(-1 -1.48939e-05 -0.000253776) overlapped by:0
[1] tgtFace:1392 centre:(2.25004 0.187448 2.18746) area:0.0156242 normal:(-1 -8.72315e-06 -0.000155768) overlapped by:0
[1] tgtFace:1393 centre:(2.25004 0.0624536 2.18746) area:0.0156243 normal:(-1 -6.61483e-06 -0.000158252) overlapped by:0
[1] tgtFace:1394 centre:(2.25002 0.187461 2.31246) area:0.0156245 normal:(-1 -6.43227e-06 -8.98806e-05) overlapped by:0
[1] tgtFace:1395 centre:(2.25001 0.062474 2.43746) area:0.0156244 normal:(-1 -8.22474e-07 -4.62286e-05) overlapped by:0
[1] tgtFace:1396 centre:(2.25001 0.187469 2.43746) area:0.0156244 normal:(-1 -9.12551e-06 -4.57437e-05) overlapped by:0
[1] tgtFace:1397 centre:(2.25002 0.0624666 2.31246) area:0.0156246 normal:(-1 -5.21018e-06 -9.10886e-05) overlapped by:0
AMI: Patch source sum(weights) min/max/average = 1, 1.18815, 1.00088
AMI: Patch target sum(weights) min/max/average = 1, 1.18815, 1.00088
AMIInterpolation : Constructed addressing and weights
    triMode        :mesh
    singlePatchProc:-1
[1] cyclicAMIPolyPatch : cyc_half0 constructed AMI with 
[1]     srcAddress:1137
[2] cyclicAMIPolyPatch : cyc_half0 constructed AMI with 
[3] cyclicAMIPolyPatch : cyc_half0 constructed AMI with 
[3]     srcAddress:0
[3]     tgAddress :1407
[3] 
[2]     srcAddress:271
[2]     tgAddress :905
[2] 
    srcMagSf       :233.732
    tgtMagSf       :233.732

[1]     tgAddress :259
[1] 
[0] cyclicAMIPolyPatch : cyc_half0 constructed AMI with 
[0]     srcAddress:1163
[0]     tgAddress :0
[0] 
End

Finalising parallel run
