mode
mode
mode
mode
mode
mode
mode
mode
mode
mode
mode
mode
ifstream
mode
mode
ofstream
mode
mode
mode
mode
mode
mode
mode
mode
mode
mode
mode
mode
ifstream
mode
mode
mode
mode
mode
mode
mode
mode
mode
mode
mode
mode
ifstream
mode
mode
mode
mode
mode
mode
mode
mode
mode
mode
mode
mode
ifstream
mode
mode
ofstream
mode
mode
mode
mode
mode
mode
mode
mode
mode
mode
mode
mode
ifstream
mode
mode
ofstream
mode
mode
mode
mode
mode
mode
mode
mode
mode
mode
mode
mode
ifstream
mode
mode
mode
mode
mode
mode
mode
mode
mode
mode
mode
mode
ifstream
mode
mode
ofstream
mode
mode
mode
mode
mode
mode
mode
mode
mode
mode
mode
mode
ifstream
/*---------------------------------------------------------------------------*\
| =========                 |                                                 |
| \\      /  F ield         | OpenFOAM: The Open Source CFD Toolbox           |
|  \\    /   O peration     | Version:  dev                                   |
|   \\  /    A nd           | Web:      www.OpenFOAM.org                      |
|    \\/     M anipulation  |                                                 |
\*---------------------------------------------------------------------------*/
Build  : dev-6832a4375e92
Exec   : simpleFoam -parallel
Date   : Sep 22 2017
Time   : 12:40:30
Host   : "bb"
PID    : 8020
I/O    : collated (maxThreadFileBufferSize 2e+09)
         Threading activated since maxThreadFileBufferSize > 0.
         Requires thread support enabled in MPI, otherwise the simulation
         may "hang".  If thread support cannot be enabled, deactivate threading
         by setting maxThreadFileBufferSize to 0 in $FOAM_ETC/controlDict
ifstream
Case   : /home/mattijs/OpenFOAM/mattijs-extensions/doc/Notes/GlobalFile_UGM2017/pitzDaily
nProcs : 4
Slaves : 
3
(
"bb.8021"
"bb.8022"
"bb.8023"
)

Pstream initialized with:
    floatTransfer      : 0
    nProcsSimpleSum    : 0
    commsType          : nonBlocking
    polling iterations : 0
sigFpe : Enabling floating point exception trapping (FOAM_SIGFPE).
SetNaN : Initialising allocated memory to NaN (FOAM_SETNAN).
fileModificationChecking : Monitoring run-time modified files using timeStamp (fileModificationSkew 10)
allowSystemOperations : Allowing user-supplied system call operations

// * * * * * * * * * * * * * * * * * * * * * * * * * * * * * * * * * * * * * //
mode
mode
Create time

readDir
readDir
mode
mode
mode
mode
mode
mode
mode
mode
ifstream
ifstream
mode
mode
fileSize
ifstream
mode
mode
fileSize
ifstream
mode
mode
fileSize
ifstream
mode
mode
mode
mode
mode
Overriding DebugSwitches according to controlDict
    POSIX           2;

[0] bool Foam::exists(const Foam::fileName&, bool, bool) : name:"/home/mattijs/OpenFOAM/mattijs-extensions/doc/Notes/GlobalFile_UGM2017/pitzDaily/processor0/0" checkGzip:0
mode
[0] mode_t Foam::mode(const Foam::fileName&, bool) : name:"/home/mattijs/OpenFOAM/mattijs-extensions/doc/Notes/GlobalFile_UGM2017/pitzDaily/processor0/0"
[0] bool Foam::isFile(const Foam::fileName&, bool, bool) : name:"/home/mattijs/OpenFOAM/mattijs-extensions/doc/Notes/GlobalFile_UGM2017/pitzDaily/processor0/0" checkGzip:0
mode
[0] mode_t Foam::mode(const Foam::fileName&, bool) : name:"/home/mattijs/OpenFOAM/mattijs-extensions/doc/Notes/GlobalFile_UGM2017/pitzDaily/processor0/0"
[0] bool Foam::exists(const Foam::fileName&, bool, bool) : name:"/home/mattijs/OpenFOAM/mattijs-extensions/doc/Notes/GlobalFile_UGM2017/pitzDaily/processor1/0" checkGzip:0
mode
[0] mode_t Foam::mode(const Foam::fileName&, bool) : name:"/home/mattijs/OpenFOAM/mattijs-extensions/doc/Notes/GlobalFile_UGM2017/pitzDaily/processor1/0"
[0] bool Foam::isFile(const Foam::fileName&, bool, bool) : name:"/home/mattijs/OpenFOAM/mattijs-extensions/doc/Notes/GlobalFile_UGM2017/pitzDaily/processor1/0" checkGzip:0
mode
[0] mode_t Foam::mode(const Foam::fileName&, bool) : name:"/home/mattijs/OpenFOAM/mattijs-extensions/doc/Notes/GlobalFile_UGM2017/pitzDaily/processor1/0"
[0] bool Foam::exists(const Foam::fileName&, bool, bool) : name:"/home/mattijs/OpenFOAM/mattijs-extensions/doc/Notes/GlobalFile_UGM2017/pitzDaily/processor2/0" checkGzip:0
mode
[0] mode_t Foam::mode(const Foam::fileName&, bool) : name:"/home/mattijs/OpenFOAM/mattijs-extensions/doc/Notes/GlobalFile_UGM2017/pitzDaily/processor2/0"
[0] bool Foam::isFile(const Foam::fileName&, bool, bool) : name:"/home/mattijs/OpenFOAM/mattijs-extensions/doc/Notes/GlobalFile_UGM2017/pitzDaily/processor2/0" checkGzip:0
mode
[0] mode_t Foam::mode(const Foam::fileName&, bool) : name:"/home/mattijs/OpenFOAM/mattijs-extensions/doc/Notes/GlobalFile_UGM2017/pitzDaily/processor2/0"
[0] bool Foam::exists(const Foam::fileName&, bool, bool) : name:"/home/mattijs/OpenFOAM/mattijs-extensions/doc/Notes/GlobalFile_UGM2017/pitzDaily/processor3/0" checkGzip:0
mode
[0] mode_t Foam::mode(const Foam::fileName&, bool) : name:"/home/mattijs/OpenFOAM/mattijs-extensions/doc/Notes/GlobalFile_UGM2017/pitzDaily/processor3/0"
[0] bool Foam::isFile(const Foam::fileName&, bool, bool) : name:"/home/mattijs/OpenFOAM/mattijs-extensions/doc/Notes/GlobalFile_UGM2017/pitzDaily/processor3/0" checkGzip:0
mode
[0] mode_t Foam::mode(const Foam::fileName&, bool) : name:"/home/mattijs/OpenFOAM/mattijs-extensions/doc/Notes/GlobalFile_UGM2017/pitzDaily/processor3/0"
[0] bool Foam::isFile(const Foam::fileName&, bool, bool) : name:"/home/mattijs/OpenFOAM/mattijs-extensions/doc/Notes/GlobalFile_UGM2017/pitzDaily/processors/0/uniform/time" checkGzip:1
mode
[0] mode_t Foam::mode(const Foam::fileName&, bool) : name:"/home/mattijs/OpenFOAM/mattijs-extensions/doc/Notes/GlobalFile_UGM2017/pitzDaily/processors/0/uniform/time"
mode
[0] mode_t Foam::mode(const Foam::fileName&, bool) : name:"/home/mattijs/OpenFOAM/mattijs-extensions/doc/Notes/GlobalFile_UGM2017/pitzDaily/processors/0/uniform/time.gz"
[0] bool Foam::isFile(const Foam::fileName&, bool, bool) : name:"/home/mattijs/OpenFOAM/mattijs-extensions/doc/Notes/GlobalFile_UGM2017/pitzDaily/processor0/0/uniform/time" checkGzip:1
mode
[0] mode_t Foam::mode(const Foam::fileName&, bool) : name:"/home/mattijs/OpenFOAM/mattijs-extensions/doc/Notes/GlobalFile_UGM2017/pitzDaily/processor0/0/uniform/time"
mode
[0] mode_t Foam::mode(const Foam::fileName&, bool) : name:"/home/mattijs/OpenFOAM/mattijs-extensions/doc/Notes/GlobalFile_UGM2017/pitzDaily/processor0/0/uniform/time.gz"
[0] bool Foam::isFile(const Foam::fileName&, bool, bool) : name:"/home/mattijs/OpenFOAM/mattijs-extensions/doc/Notes/GlobalFile_UGM2017/pitzDaily/processors/0/uniform/time" checkGzip:1
mode
[0] mode_t Foam::mode(const Foam::fileName&, bool) : name:"/home/mattijs/OpenFOAM/mattijs-extensions/doc/Notes/GlobalFile_UGM2017/pitzDaily/processors/0/uniform/time"
mode
[0] mode_t Foam::mode(const Foam::fileName&, bool) : name:"/home/mattijs/OpenFOAM/mattijs-extensions/doc/Notes/GlobalFile_UGM2017/pitzDaily/processors/0/uniform/time.gz"
[0] bool Foam::isFile(const Foam::fileName&, bool, bool) : name:"/home/mattijs/OpenFOAM/mattijs-extensions/doc/Notes/GlobalFile_UGM2017/pitzDaily/processor0/0/uniform/time" checkGzip:1
mode
[0] mode_t Foam::mode(const Foam::fileName&, bool) : name:"/home/mattijs/OpenFOAM/mattijs-extensions/doc/Notes/GlobalFile_UGM2017/pitzDaily/processor0/0/uniform/time"
mode
[0] mode_t Foam::mode(const Foam::fileName&, bool) : name:"/home/mattijs/OpenFOAM/mattijs-extensions/doc/Notes/GlobalFile_UGM2017/pitzDaily/processor0/0/uniform/time.gz"
[0] bool Foam::isFile(const Foam::fileName&, bool, bool) : name:"/home/mattijs/OpenFOAM/mattijs-extensions/doc/Notes/GlobalFile_UGM2017/pitzDaily/processor0/0/uniform/time" checkGzip:1
mode
[0] mode_t Foam::mode(const Foam::fileName&, bool) : name:"/home/mattijs/OpenFOAM/mattijs-extensions/doc/Notes/GlobalFile_UGM2017/pitzDaily/processor0/0/uniform/time"
mode
[0] mode_t Foam::mode(const Foam::fileName&, bool) : name:"/home/mattijs/OpenFOAM/mattijs-extensions/doc/Notes/GlobalFile_UGM2017/pitzDaily/processor0/0/uniform/time.gz"
[0] bool Foam::isFile(const Foam::fileName&, bool, bool) : name:"/home/mattijs/OpenFOAM/mattijs-extensions/doc/Notes/GlobalFile_UGM2017/pitzDaily/processor1/0/uniform/time" checkGzip:1
mode
[0] mode_t Foam::mode(const Foam::fileName&, bool) : name:"/home/mattijs/OpenFOAM/mattijs-extensions/doc/Notes/GlobalFile_UGM2017/pitzDaily/processor1/0/uniform/time"
mode
[0] mode_t Foam::mode(const Foam::fileName&, bool) : name:"/home/mattijs/OpenFOAM/mattijs-extensions/doc/Notes/GlobalFile_UGM2017/pitzDaily/processor1/0/uniform/time.gz"
[0] bool Foam::isFile(const Foam::fileName&, bool, bool) : name:"/home/mattijs/OpenFOAM/mattijs-extensions/doc/Notes/GlobalFile_UGM2017/pitzDaily/processor2/0/uniform/time" checkGzip:1
mode
[0] mode_t Foam::mode(const Foam::fileName&, bool) : name:"/home/mattijs/OpenFOAM/mattijs-extensions/doc/Notes/GlobalFile_UGM2017/pitzDaily/processor2/0/uniform/time"
mode
[0] mode_t Foam::mode(const Foam::fileName&, bool) : name:"/home/mattijs/OpenFOAM/mattijs-extensions/doc/Notes/GlobalFile_UGM2017/pitzDaily/processor2/0/uniform/time.gz"
[0] bool Foam::isFile(const Foam::fileName&, bool, bool) : name:"/home/mattijs/OpenFOAM/mattijs-extensions/doc/Notes/GlobalFile_UGM2017/pitzDaily/processor3/0/uniform/time" checkGzip:1
mode
[0] mode_t Foam::mode(const Foam::fileName&, bool) : name:"/home/mattijs/OpenFOAM/mattijs-extensions/doc/Notes/GlobalFile_UGM2017/pitzDaily/processor3/0/uniform/time"
mode
[0] mode_t Foam::mode(const Foam::fileName&, bool) : name:"/home/mattijs/OpenFOAM/mattijs-extensions/doc/Notes/GlobalFile_UGM2017/pitzDaily/processor3/0/uniform/time.gz"
highResLastModified
[0] double Foam::highResLastModified(const Foam::fileName&, bool) : name:"/home/mattijs/OpenFOAM/mattijs-extensions/doc/Notes/GlobalFile_UGM2017/pitzDaily/system/controlDict"
Create mesh for time = 0

[0] bool Foam::isFile(const Foam::fileName&, bool, bool) : name:"/home/mattijs/OpenFOAM/mattijs-extensions/doc/Notes/GlobalFile_UGM2017/pitzDaily/processors/0/polyMesh/points" checkGzip:1
mode
[0] mode_t Foam::mode(const Foam::fileName&, bool) : name:"/home/mattijs/OpenFOAM/mattijs-extensions/doc/Notes/GlobalFile_UGM2017/pitzDaily/processors/0/polyMesh/points"
mode
[0] mode_t Foam::mode(const Foam::fileName&, bool) : name:"/home/mattijs/OpenFOAM/mattijs-extensions/doc/Notes/GlobalFile_UGM2017/pitzDaily/processors/0/polyMesh/points.gz"
[0] bool Foam::isFile(const Foam::fileName&, bool, bool) : name:"/home/mattijs/OpenFOAM/mattijs-extensions/doc/Notes/GlobalFile_UGM2017/pitzDaily/processor0/0/polyMesh/points" checkGzip:1
mode
[0] mode_t Foam::mode(const Foam::fileName&, bool) : name:"/home/mattijs/OpenFOAM/mattijs-extensions/doc/Notes/GlobalFile_UGM2017/pitzDaily/processor0/0/polyMesh/points"
mode
[0] mode_t Foam::mode(const Foam::fileName&, bool) : name:"/home/mattijs/OpenFOAM/mattijs-extensions/doc/Notes/GlobalFile_UGM2017/pitzDaily/processor0/0/polyMesh/points.gz"
[0] bool Foam::isFile(const Foam::fileName&, bool, bool) : name:"/home/mattijs/OpenFOAM/mattijs-extensions/doc/Notes/GlobalFile_UGM2017/pitzDaily/processor1/0/polyMesh/points" checkGzip:1
mode
[0] mode_t Foam::mode(const Foam::fileName&, bool) : name:"/home/mattijs/OpenFOAM/mattijs-extensions/doc/Notes/GlobalFile_UGM2017/pitzDaily/processor1/0/polyMesh/points"
mode
[0] mode_t Foam::mode(const Foam::fileName&, bool) : name:"/home/mattijs/OpenFOAM/mattijs-extensions/doc/Notes/GlobalFile_UGM2017/pitzDaily/processor1/0/polyMesh/points.gz"
[0] bool Foam::isFile(const Foam::fileName&, bool, bool) : name:"/home/mattijs/OpenFOAM/mattijs-extensions/doc/Notes/GlobalFile_UGM2017/pitzDaily/processor2/0/polyMesh/points" checkGzip:1
mode
[0] mode_t Foam::mode(const Foam::fileName&, bool) : name:"/home/mattijs/OpenFOAM/mattijs-extensions/doc/Notes/GlobalFile_UGM2017/pitzDaily/processor2/0/polyMesh/points"
mode
[0] mode_t Foam::mode(const Foam::fileName&, bool) : name:"/home/mattijs/OpenFOAM/mattijs-extensions/doc/Notes/GlobalFile_UGM2017/pitzDaily/processor2/0/polyMesh/points.gz"
[0] bool Foam::isFile(const Foam::fileName&, bool, bool) : name:"/home/mattijs/OpenFOAM/mattijs-extensions/doc/Notes/GlobalFile_UGM2017/pitzDaily/processor3/0/polyMesh/points" checkGzip:1
mode
[0] mode_t Foam::mode(const Foam::fileName&, bool) : name:"/home/mattijs/OpenFOAM/mattijs-extensions/doc/Notes/GlobalFile_UGM2017/pitzDaily/processor3/0/polyMesh/points"
mode
[0] mode_t Foam::mode(const Foam::fileName&, bool) : name:"/home/mattijs/OpenFOAM/mattijs-extensions/doc/Notes/GlobalFile_UGM2017/pitzDaily/processor3/0/polyMesh/points.gz"
[0] bool Foam::isFile(const Foam::fileName&, bool, bool) : name:"/home/mattijs/OpenFOAM/mattijs-extensions/doc/Notes/GlobalFile_UGM2017/pitzDaily/processors/0/polyMesh/points" checkGzip:1
mode
[0] mode_t Foam::mode(const Foam::fileName&, bool) : name:"/home/mattijs/OpenFOAM/mattijs-extensions/doc/Notes/GlobalFile_UGM2017/pitzDaily/processors/0/polyMesh/points"
mode
[0] mode_t Foam::mode(const Foam::fileName&, bool) : name:"/home/mattijs/OpenFOAM/mattijs-extensions/doc/Notes/GlobalFile_UGM2017/pitzDaily/processors/0/polyMesh/points.gz"
[0] bool Foam::isFile(const Foam::fileName&, bool, bool) : name:"/home/mattijs/OpenFOAM/mattijs-extensions/doc/Notes/GlobalFile_UGM2017/pitzDaily/processor0/0/polyMesh/points" checkGzip:1
mode
[0] mode_t Foam::mode(const Foam::fileName&, bool) : name:"/home/mattijs/OpenFOAM/mattijs-extensions/doc/Notes/GlobalFile_UGM2017/pitzDaily/processor0/0/polyMesh/points"
mode
[0] mode_t Foam::mode(const Foam::fileName&, bool) : name:"/home/mattijs/OpenFOAM/mattijs-extensions/doc/Notes/GlobalFile_UGM2017/pitzDaily/processor0/0/polyMesh/points.gz"
[0] bool Foam::isFile(const Foam::fileName&, bool, bool) : name:"/home/mattijs/OpenFOAM/mattijs-extensions/doc/Notes/GlobalFile_UGM2017/pitzDaily/processor1/0/polyMesh/points" checkGzip:1
mode
[0] mode_t Foam::mode(const Foam::fileName&, bool) : name:"/home/mattijs/OpenFOAM/mattijs-extensions/doc/Notes/GlobalFile_UGM2017/pitzDaily/processor1/0/polyMesh/points"
mode
[0] mode_t Foam::mode(const Foam::fileName&, bool) : name:"/home/mattijs/OpenFOAM/mattijs-extensions/doc/Notes/GlobalFile_UGM2017/pitzDaily/processor1/0/polyMesh/points.gz"
[0] bool Foam::isFile(const Foam::fileName&, bool, bool) : name:"/home/mattijs/OpenFOAM/mattijs-extensions/doc/Notes/GlobalFile_UGM2017/pitzDaily/processor2/0/polyMesh/points" checkGzip:1
mode
[0] mode_t Foam::mode(const Foam::fileName&, bool) : name:"/home/mattijs/OpenFOAM/mattijs-extensions/doc/Notes/GlobalFile_UGM2017/pitzDaily/processor2/0/polyMesh/points"
mode
[0] mode_t Foam::mode(const Foam::fileName&, bool) : name:"/home/mattijs/OpenFOAM/mattijs-extensions/doc/Notes/GlobalFile_UGM2017/pitzDaily/processor2/0/polyMesh/points.gz"
[0] bool Foam::isFile(const Foam::fileName&, bool, bool) : name:"/home/mattijs/OpenFOAM/mattijs-extensions/doc/Notes/GlobalFile_UGM2017/pitzDaily/processor3/0/polyMesh/points" checkGzip:1
mode
[0] mode_t Foam::mode(const Foam::fileName&, bool) : name:"/home/mattijs/OpenFOAM/mattijs-extensions/doc/Notes/GlobalFile_UGM2017/pitzDaily/processor3/0/polyMesh/points"
mode
[0] mode_t Foam::mode(const Foam::fileName&, bool) : name:"/home/mattijs/OpenFOAM/mattijs-extensions/doc/Notes/GlobalFile_UGM2017/pitzDaily/processor3/0/polyMesh/points.gz"
[0] bool Foam::isFile(const Foam::fileName&, bool, bool) : name:"/home/mattijs/OpenFOAM/mattijs-extensions/doc/Notes/GlobalFile_UGM2017/pitzDaily/processors/constant/polyMesh/points" checkGzip:1
mode
[0] mode_t Foam::mode(const Foam::fileName&, bool) : name:"/home/mattijs/OpenFOAM/mattijs-extensions/doc/Notes/GlobalFile_UGM2017/pitzDaily/processors/constant/polyMesh/points"
[0] bool Foam::isFile(const Foam::fileName&, bool, bool) : name:"/home/mattijs/OpenFOAM/mattijs-extensions/doc/Notes/GlobalFile_UGM2017/pitzDaily/processors/constant/polyMesh/points" checkGzip:1
mode
[0] mode_t Foam::mode(const Foam::fileName&, bool) : name:"/home/mattijs/OpenFOAM/mattijs-extensions/doc/Notes/GlobalFile_UGM2017/pitzDaily/processors/constant/polyMesh/points"
ifstream
[0] bool Foam::isFile(const Foam::fileName&, bool, bool) : name:"/home/mattijs/OpenFOAM/mattijs-extensions/doc/Notes/GlobalFile_UGM2017/pitzDaily/processors/constant/polyMesh/points" checkGzip:1
mode
[0] mode_t Foam::mode(const Foam::fileName&, bool) : name:"/home/mattijs/OpenFOAM/mattijs-extensions/doc/Notes/GlobalFile_UGM2017/pitzDaily/processors/constant/polyMesh/points"
ifstream
fileSize
[0] off_t Foam::fileSize(const Foam::fileName&, bool) : name:"/home/mattijs/OpenFOAM/mattijs-extensions/doc/Notes/GlobalFile_UGM2017/pitzDaily/processors/constant/polyMesh/points"
[0] bool Foam::isFile(const Foam::fileName&, bool, bool) : name:"/home/mattijs/OpenFOAM/mattijs-extensions/doc/Notes/GlobalFile_UGM2017/pitzDaily/processors/0/polyMesh/faces" checkGzip:1
mode
[0] mode_t Foam::mode(const Foam::fileName&, bool) : name:"/home/mattijs/OpenFOAM/mattijs-extensions/doc/Notes/GlobalFile_UGM2017/pitzDaily/processors/0/polyMesh/faces"
mode
[0] mode_t Foam::mode(const Foam::fileName&, bool) : name:"/home/mattijs/OpenFOAM/mattijs-extensions/doc/Notes/GlobalFile_UGM2017/pitzDaily/processors/0/polyMesh/faces.gz"
[0] bool Foam::isFile(const Foam::fileName&, bool, bool) : name:"/home/mattijs/OpenFOAM/mattijs-extensions/doc/Notes/GlobalFile_UGM2017/pitzDaily/processor0/0/polyMesh/faces" checkGzip:1
mode
[0] mode_t Foam::mode(const Foam::fileName&, bool) : name:"/home/mattijs/OpenFOAM/mattijs-extensions/doc/Notes/GlobalFile_UGM2017/pitzDaily/processor0/0/polyMesh/faces"
mode
[0] mode_t Foam::mode(const Foam::fileName&, bool) : name:"/home/mattijs/OpenFOAM/mattijs-extensions/doc/Notes/GlobalFile_UGM2017/pitzDaily/processor0/0/polyMesh/faces.gz"
[0] bool Foam::isFile(const Foam::fileName&, bool, bool) : name:"/home/mattijs/OpenFOAM/mattijs-extensions/doc/Notes/GlobalFile_UGM2017/pitzDaily/processor1/0/polyMesh/faces" checkGzip:1
mode
[0] mode_t Foam::mode(const Foam::fileName&, bool) : name:"/home/mattijs/OpenFOAM/mattijs-extensions/doc/Notes/GlobalFile_UGM2017/pitzDaily/processor1/0/polyMesh/faces"
mode
[0] mode_t Foam::mode(const Foam::fileName&, bool) : name:"/home/mattijs/OpenFOAM/mattijs-extensions/doc/Notes/GlobalFile_UGM2017/pitzDaily/processor1/0/polyMesh/faces.gz"
[0] bool Foam::isFile(const Foam::fileName&, bool, bool) : name:"/home/mattijs/OpenFOAM/mattijs-extensions/doc/Notes/GlobalFile_UGM2017/pitzDaily/processor2/0/polyMesh/faces" checkGzip:1
mode
[0] mode_t Foam::mode(const Foam::fileName&, bool) : name:"/home/mattijs/OpenFOAM/mattijs-extensions/doc/Notes/GlobalFile_UGM2017/pitzDaily/processor2/0/polyMesh/faces"
mode
[0] mode_t Foam::mode(const Foam::fileName&, bool) : name:"/home/mattijs/OpenFOAM/mattijs-extensions/doc/Notes/GlobalFile_UGM2017/pitzDaily/processor2/0/polyMesh/faces.gz"
[0] bool Foam::isFile(const Foam::fileName&, bool, bool) : name:"/home/mattijs/OpenFOAM/mattijs-extensions/doc/Notes/GlobalFile_UGM2017/pitzDaily/processor3/0/polyMesh/faces" checkGzip:1
mode
[0] mode_t Foam::mode(const Foam::fileName&, bool) : name:"/home/mattijs/OpenFOAM/mattijs-extensions/doc/Notes/GlobalFile_UGM2017/pitzDaily/processor3/0/polyMesh/faces"
mode
[0] mode_t Foam::mode(const Foam::fileName&, bool) : name:"/home/mattijs/OpenFOAM/mattijs-extensions/doc/Notes/GlobalFile_UGM2017/pitzDaily/processor3/0/polyMesh/faces.gz"
[0] bool Foam::isFile(const Foam::fileName&, bool, bool) : name:"/home/mattijs/OpenFOAM/mattijs-extensions/doc/Notes/GlobalFile_UGM2017/pitzDaily/processors/0/polyMesh/faces" checkGzip:1
mode
[0] mode_t Foam::mode(const Foam::fileName&, bool) : name:"/home/mattijs/OpenFOAM/mattijs-extensions/doc/Notes/GlobalFile_UGM2017/pitzDaily/processors/0/polyMesh/faces"
mode
[0] mode_t Foam::mode(const Foam::fileName&, bool) : name:"/home/mattijs/OpenFOAM/mattijs-extensions/doc/Notes/GlobalFile_UGM2017/pitzDaily/processors/0/polyMesh/faces.gz"
[0] bool Foam::isFile(const Foam::fileName&, bool, bool) : name:"/home/mattijs/OpenFOAM/mattijs-extensions/doc/Notes/GlobalFile_UGM2017/pitzDaily/processor0/0/polyMesh/faces" checkGzip:1
mode
[0] mode_t Foam::mode(const Foam::fileName&, bool) : name:"/home/mattijs/OpenFOAM/mattijs-extensions/doc/Notes/GlobalFile_UGM2017/pitzDaily/processor0/0/polyMesh/faces"
mode
[0] mode_t Foam::mode(const Foam::fileName&, bool) : name:"/home/mattijs/OpenFOAM/mattijs-extensions/doc/Notes/GlobalFile_UGM2017/pitzDaily/processor0/0/polyMesh/faces.gz"
[0] bool Foam::isFile(const Foam::fileName&, bool, bool) : name:"/home/mattijs/OpenFOAM/mattijs-extensions/doc/Notes/GlobalFile_UGM2017/pitzDaily/processor1/0/polyMesh/faces" checkGzip:1
mode
[0] mode_t Foam::mode(const Foam::fileName&, bool) : name:"/home/mattijs/OpenFOAM/mattijs-extensions/doc/Notes/GlobalFile_UGM2017/pitzDaily/processor1/0/polyMesh/faces"
mode
[0] mode_t Foam::mode(const Foam::fileName&, bool) : name:"/home/mattijs/OpenFOAM/mattijs-extensions/doc/Notes/GlobalFile_UGM2017/pitzDaily/processor1/0/polyMesh/faces.gz"
[0] bool Foam::isFile(const Foam::fileName&, bool, bool) : name:"/home/mattijs/OpenFOAM/mattijs-extensions/doc/Notes/GlobalFile_UGM2017/pitzDaily/processor2/0/polyMesh/faces" checkGzip:1
mode
[0] mode_t Foam::mode(const Foam::fileName&, bool) : name:"/home/mattijs/OpenFOAM/mattijs-extensions/doc/Notes/GlobalFile_UGM2017/pitzDaily/processor2/0/polyMesh/faces"
mode
[0] mode_t Foam::mode(const Foam::fileName&, bool) : name:"/home/mattijs/OpenFOAM/mattijs-extensions/doc/Notes/GlobalFile_UGM2017/pitzDaily/processor2/0/polyMesh/faces.gz"
[0] bool Foam::isFile(const Foam::fileName&, bool, bool) : name:"/home/mattijs/OpenFOAM/mattijs-extensions/doc/Notes/GlobalFile_UGM2017/pitzDaily/processor3/0/polyMesh/faces" checkGzip:1
mode
[0] mode_t Foam::mode(const Foam::fileName&, bool) : name:"/home/mattijs/OpenFOAM/mattijs-extensions/doc/Notes/GlobalFile_UGM2017/pitzDaily/processor3/0/polyMesh/faces"
mode
[0] mode_t Foam::mode(const Foam::fileName&, bool) : name:"/home/mattijs/OpenFOAM/mattijs-extensions/doc/Notes/GlobalFile_UGM2017/pitzDaily/processor3/0/polyMesh/faces.gz"
[0] bool Foam::isFile(const Foam::fileName&, bool, bool) : name:"/home/mattijs/OpenFOAM/mattijs-extensions/doc/Notes/GlobalFile_UGM2017/pitzDaily/processors/constant/polyMesh/faces" checkGzip:1
mode
[0] mode_t Foam::mode(const Foam::fileName&, bool) : name:"/home/mattijs/OpenFOAM/mattijs-extensions/doc/Notes/GlobalFile_UGM2017/pitzDaily/processors/constant/polyMesh/faces"
[0] bool Foam::isFile(const Foam::fileName&, bool, bool) : name:"/home/mattijs/OpenFOAM/mattijs-extensions/doc/Notes/GlobalFile_UGM2017/pitzDaily/processors/constant/polyMesh/faces" checkGzip:1
mode
[0] mode_t Foam::mode(const Foam::fileName&, bool) : name:"/home/mattijs/OpenFOAM/mattijs-extensions/doc/Notes/GlobalFile_UGM2017/pitzDaily/processors/constant/polyMesh/faces"
ifstream
[0] bool Foam::isFile(const Foam::fileName&, bool, bool) : name:"/home/mattijs/OpenFOAM/mattijs-extensions/doc/Notes/GlobalFile_UGM2017/pitzDaily/processors/constant/polyMesh/faces" checkGzip:1
mode
[0] mode_t Foam::mode(const Foam::fileName&, bool) : name:"/home/mattijs/OpenFOAM/mattijs-extensions/doc/Notes/GlobalFile_UGM2017/pitzDaily/processors/constant/polyMesh/faces"
ifstream
fileSize
[0] off_t Foam::fileSize(const Foam::fileName&, bool) : name:"/home/mattijs/OpenFOAM/mattijs-extensions/doc/Notes/GlobalFile_UGM2017/pitzDaily/processors/constant/polyMesh/faces"
[0] bool Foam::isFile(const Foam::fileName&, bool, bool) : name:"/home/mattijs/OpenFOAM/mattijs-extensions/doc/Notes/GlobalFile_UGM2017/pitzDaily/processors/constant/polyMesh/owner" checkGzip:1
mode
[0] mode_t Foam::mode(const Foam::fileName&, bool) : name:"/home/mattijs/OpenFOAM/mattijs-extensions/doc/Notes/GlobalFile_UGM2017/pitzDaily/processors/constant/polyMesh/owner"
ifstream
[0] bool Foam::isFile(const Foam::fileName&, bool, bool) : name:"/home/mattijs/OpenFOAM/mattijs-extensions/doc/Notes/GlobalFile_UGM2017/pitzDaily/processors/constant/polyMesh/owner" checkGzip:1
mode
[0] mode_t Foam::mode(const Foam::fileName&, bool) : name:"/home/mattijs/OpenFOAM/mattijs-extensions/doc/Notes/GlobalFile_UGM2017/pitzDaily/processors/constant/polyMesh/owner"
ifstream
fileSize
[0] off_t Foam::fileSize(const Foam::fileName&, bool) : name:"/home/mattijs/OpenFOAM/mattijs-extensions/doc/Notes/GlobalFile_UGM2017/pitzDaily/processors/constant/polyMesh/owner"
[0] bool Foam::isFile(const Foam::fileName&, bool, bool) : name:"/home/mattijs/OpenFOAM/mattijs-extensions/doc/Notes/GlobalFile_UGM2017/pitzDaily/processors/constant/polyMesh/neighbour" checkGzip:1
mode
[0] mode_t Foam::mode(const Foam::fileName&, bool) : name:"/home/mattijs/OpenFOAM/mattijs-extensions/doc/Notes/GlobalFile_UGM2017/pitzDaily/processors/constant/polyMesh/neighbour"
ifstream
[0] bool Foam::isFile(const Foam::fileName&, bool, bool) : name:"/home/mattijs/OpenFOAM/mattijs-extensions/doc/Notes/GlobalFile_UGM2017/pitzDaily/processors/constant/polyMesh/neighbour" checkGzip:1
mode
[0] mode_t Foam::mode(const Foam::fileName&, bool) : name:"/home/mattijs/OpenFOAM/mattijs-extensions/doc/Notes/GlobalFile_UGM2017/pitzDaily/processors/constant/polyMesh/neighbour"
ifstream
fileSize
[0] off_t Foam::fileSize(const Foam::fileName&, bool) : name:"/home/mattijs/OpenFOAM/mattijs-extensions/doc/Notes/GlobalFile_UGM2017/pitzDaily/processors/constant/polyMesh/neighbour"
[0] bool Foam::isFile(const Foam::fileName&, bool, bool) : name:"/home/mattijs/OpenFOAM/mattijs-extensions/doc/Notes/GlobalFile_UGM2017/pitzDaily/processors/0/polyMesh/boundary" checkGzip:1
mode
[0] mode_t Foam::mode(const Foam::fileName&, bool) : name:"/home/mattijs/OpenFOAM/mattijs-extensions/doc/Notes/GlobalFile_UGM2017/pitzDaily/processors/0/polyMesh/boundary"
mode
[0] mode_t Foam::mode(const Foam::fileName&, bool) : name:"/home/mattijs/OpenFOAM/mattijs-extensions/doc/Notes/GlobalFile_UGM2017/pitzDaily/processors/0/polyMesh/boundary.gz"
[0] bool Foam::isFile(const Foam::fileName&, bool, bool) : name:"/home/mattijs/OpenFOAM/mattijs-extensions/doc/Notes/GlobalFile_UGM2017/pitzDaily/processor0/0/polyMesh/boundary" checkGzip:1
mode
[0] mode_t Foam::mode(const Foam::fileName&, bool) : name:"/home/mattijs/OpenFOAM/mattijs-extensions/doc/Notes/GlobalFile_UGM2017/pitzDaily/processor0/0/polyMesh/boundary"
mode
[0] mode_t Foam::mode(const Foam::fileName&, bool) : name:"/home/mattijs/OpenFOAM/mattijs-extensions/doc/Notes/GlobalFile_UGM2017/pitzDaily/processor0/0/polyMesh/boundary.gz"
[0] bool Foam::isFile(const Foam::fileName&, bool, bool) : name:"/home/mattijs/OpenFOAM/mattijs-extensions/doc/Notes/GlobalFile_UGM2017/pitzDaily/processor1/0/polyMesh/boundary" checkGzip:1
mode
[0] mode_t Foam::mode(const Foam::fileName&, bool) : name:"/home/mattijs/OpenFOAM/mattijs-extensions/doc/Notes/GlobalFile_UGM2017/pitzDaily/processor1/0/polyMesh/boundary"
mode
[0] mode_t Foam::mode(const Foam::fileName&, bool) : name:"/home/mattijs/OpenFOAM/mattijs-extensions/doc/Notes/GlobalFile_UGM2017/pitzDaily/processor1/0/polyMesh/boundary.gz"
[0] bool Foam::isFile(const Foam::fileName&, bool, bool) : name:"/home/mattijs/OpenFOAM/mattijs-extensions/doc/Notes/GlobalFile_UGM2017/pitzDaily/processor2/0/polyMesh/boundary" checkGzip:1
mode
[0] mode_t Foam::mode(const Foam::fileName&, bool) : name:"/home/mattijs/OpenFOAM/mattijs-extensions/doc/Notes/GlobalFile_UGM2017/pitzDaily/processor2/0/polyMesh/boundary"
mode
[0] mode_t Foam::mode(const Foam::fileName&, bool) : name:"/home/mattijs/OpenFOAM/mattijs-extensions/doc/Notes/GlobalFile_UGM2017/pitzDaily/processor2/0/polyMesh/boundary.gz"
[0] bool Foam::isFile(const Foam::fileName&, bool, bool) : name:"/home/mattijs/OpenFOAM/mattijs-extensions/doc/Notes/GlobalFile_UGM2017/pitzDaily/processor3/0/polyMesh/boundary" checkGzip:1
mode
[0] mode_t Foam::mode(const Foam::fileName&, bool) : name:"/home/mattijs/OpenFOAM/mattijs-extensions/doc/Notes/GlobalFile_UGM2017/pitzDaily/processor3/0/polyMesh/boundary"
mode
[0] mode_t Foam::mode(const Foam::fileName&, bool) : name:"/home/mattijs/OpenFOAM/mattijs-extensions/doc/Notes/GlobalFile_UGM2017/pitzDaily/processor3/0/polyMesh/boundary.gz"
[0] bool Foam::isFile(const Foam::fileName&, bool, bool) : name:"/home/mattijs/OpenFOAM/mattijs-extensions/doc/Notes/GlobalFile_UGM2017/pitzDaily/processors/0/polyMesh/boundary" checkGzip:1
mode
[0] mode_t Foam::mode(const Foam::fileName&, bool) : name:"/home/mattijs/OpenFOAM/mattijs-extensions/doc/Notes/GlobalFile_UGM2017/pitzDaily/processors/0/polyMesh/boundary"
mode
[0] mode_t Foam::mode(const Foam::fileName&, bool) : name:"/home/mattijs/OpenFOAM/mattijs-extensions/doc/Notes/GlobalFile_UGM2017/pitzDaily/processors/0/polyMesh/boundary.gz"
[0] bool Foam::isFile(const Foam::fileName&, bool, bool) : name:"/home/mattijs/OpenFOAM/mattijs-extensions/doc/Notes/GlobalFile_UGM2017/pitzDaily/processor0/0/polyMesh/boundary" checkGzip:1
mode
[0] mode_t Foam::mode(const Foam::fileName&, bool) : name:"/home/mattijs/OpenFOAM/mattijs-extensions/doc/Notes/GlobalFile_UGM2017/pitzDaily/processor0/0/polyMesh/boundary"
mode
[0] mode_t Foam::mode(const Foam::fileName&, bool) : name:"/home/mattijs/OpenFOAM/mattijs-extensions/doc/Notes/GlobalFile_UGM2017/pitzDaily/processor0/0/polyMesh/boundary.gz"
[0] bool Foam::isFile(const Foam::fileName&, bool, bool) : name:"/home/mattijs/OpenFOAM/mattijs-extensions/doc/Notes/GlobalFile_UGM2017/pitzDaily/processor1/0/polyMesh/boundary" checkGzip:1
mode
[0] mode_t Foam::mode(const Foam::fileName&, bool) : name:"/home/mattijs/OpenFOAM/mattijs-extensions/doc/Notes/GlobalFile_UGM2017/pitzDaily/processor1/0/polyMesh/boundary"
mode
[0] mode_t Foam::mode(const Foam::fileName&, bool) : name:"/home/mattijs/OpenFOAM/mattijs-extensions/doc/Notes/GlobalFile_UGM2017/pitzDaily/processor1/0/polyMesh/boundary.gz"
[0] bool Foam::isFile(const Foam::fileName&, bool, bool) : name:"/home/mattijs/OpenFOAM/mattijs-extensions/doc/Notes/GlobalFile_UGM2017/pitzDaily/processor2/0/polyMesh/boundary" checkGzip:1
mode
[0] mode_t Foam::mode(const Foam::fileName&, bool) : name:"/home/mattijs/OpenFOAM/mattijs-extensions/doc/Notes/GlobalFile_UGM2017/pitzDaily/processor2/0/polyMesh/boundary"
mode
[0] mode_t Foam::mode(const Foam::fileName&, bool) : name:"/home/mattijs/OpenFOAM/mattijs-extensions/doc/Notes/GlobalFile_UGM2017/pitzDaily/processor2/0/polyMesh/boundary.gz"
[0] bool Foam::isFile(const Foam::fileName&, bool, bool) : name:"/home/mattijs/OpenFOAM/mattijs-extensions/doc/Notes/GlobalFile_UGM2017/pitzDaily/processor3/0/polyMesh/boundary" checkGzip:1
mode
[0] mode_t Foam::mode(const Foam::fileName&, bool) : name:"/home/mattijs/OpenFOAM/mattijs-extensions/doc/Notes/GlobalFile_UGM2017/pitzDaily/processor3/0/polyMesh/boundary"
mode
[0] mode_t Foam::mode(const Foam::fileName&, bool) : name:"/home/mattijs/OpenFOAM/mattijs-extensions/doc/Notes/GlobalFile_UGM2017/pitzDaily/processor3/0/polyMesh/boundary.gz"
[0] bool Foam::isFile(const Foam::fileName&, bool, bool) : name:"/home/mattijs/OpenFOAM/mattijs-extensions/doc/Notes/GlobalFile_UGM2017/pitzDaily/processors/constant/polyMesh/boundary" checkGzip:1
mode
[0] mode_t Foam::mode(const Foam::fileName&, bool) : name:"/home/mattijs/OpenFOAM/mattijs-extensions/doc/Notes/GlobalFile_UGM2017/pitzDaily/processors/constant/polyMesh/boundary"
[0] bool Foam::isFile(const Foam::fileName&, bool, bool) : name:"/home/mattijs/OpenFOAM/mattijs-extensions/doc/Notes/GlobalFile_UGM2017/pitzDaily/processors/constant/polyMesh/boundary" checkGzip:1
mode
[0] mode_t Foam::mode(const Foam::fileName&, bool) : name:"/home/mattijs/OpenFOAM/mattijs-extensions/doc/Notes/GlobalFile_UGM2017/pitzDaily/processors/constant/polyMesh/boundary"
ifstream
[0] bool Foam::isFile(const Foam::fileName&, bool, bool) : name:"/home/mattijs/OpenFOAM/mattijs-extensions/doc/Notes/GlobalFile_UGM2017/pitzDaily/processors/constant/polyMesh/boundary" checkGzip:1
mode
[0] mode_t Foam::mode(const Foam::fileName&, bool) : name:"/home/mattijs/OpenFOAM/mattijs-extensions/doc/Notes/GlobalFile_UGM2017/pitzDaily/processors/constant/polyMesh/boundary"
ifstream
fileSize
[0] off_t Foam::fileSize(const Foam::fileName&, bool) : name:"/home/mattijs/OpenFOAM/mattijs-extensions/doc/Notes/GlobalFile_UGM2017/pitzDaily/processors/constant/polyMesh/boundary"
[0] bool Foam::isFile(const Foam::fileName&, bool, bool) : name:"/home/mattijs/OpenFOAM/mattijs-extensions/doc/Notes/GlobalFile_UGM2017/pitzDaily/processors/0/polyMesh/tetBasePtIs" checkGzip:1
mode
[0] mode_t Foam::mode(const Foam::fileName&, bool) : name:"/home/mattijs/OpenFOAM/mattijs-extensions/doc/Notes/GlobalFile_UGM2017/pitzDaily/processors/0/polyMesh/tetBasePtIs"
mode
[0] mode_t Foam::mode(const Foam::fileName&, bool) : name:"/home/mattijs/OpenFOAM/mattijs-extensions/doc/Notes/GlobalFile_UGM2017/pitzDaily/processors/0/polyMesh/tetBasePtIs.gz"
[0] bool Foam::isFile(const Foam::fileName&, bool, bool) : name:"/home/mattijs/OpenFOAM/mattijs-extensions/doc/Notes/GlobalFile_UGM2017/pitzDaily/processor0/0/polyMesh/tetBasePtIs" checkGzip:1
mode
[0] mode_t Foam::mode(const Foam::fileName&, bool) : name:"/home/mattijs/OpenFOAM/mattijs-extensions/doc/Notes/GlobalFile_UGM2017/pitzDaily/processor0/0/polyMesh/tetBasePtIs"
mode
[0] mode_t Foam::mode(const Foam::fileName&, bool) : name:"/home/mattijs/OpenFOAM/mattijs-extensions/doc/Notes/GlobalFile_UGM2017/pitzDaily/processor0/0/polyMesh/tetBasePtIs.gz"
[0] bool Foam::isFile(const Foam::fileName&, bool, bool) : name:"/home/mattijs/OpenFOAM/mattijs-extensions/doc/Notes/GlobalFile_UGM2017/pitzDaily/processors/0/polyMesh/tetBasePtIs" checkGzip:1
mode
[0] mode_t Foam::mode(const Foam::fileName&, bool) : name:"/home/mattijs/OpenFOAM/mattijs-extensions/doc/Notes/GlobalFile_UGM2017/pitzDaily/processors/0/polyMesh/tetBasePtIs"
mode
[0] mode_t Foam::mode(const Foam::fileName&, bool) : name:"/home/mattijs/OpenFOAM/mattijs-extensions/doc/Notes/GlobalFile_UGM2017/pitzDaily/processors/0/polyMesh/tetBasePtIs.gz"
[0] bool Foam::isFile(const Foam::fileName&, bool, bool) : name:"/home/mattijs/OpenFOAM/mattijs-extensions/doc/Notes/GlobalFile_UGM2017/pitzDaily/processor0/0/polyMesh/tetBasePtIs" checkGzip:1
mode
[0] mode_t Foam::mode(const Foam::fileName&, bool) : name:"/home/mattijs/OpenFOAM/mattijs-extensions/doc/Notes/GlobalFile_UGM2017/pitzDaily/processor0/0/polyMesh/tetBasePtIs"
mode
[0] mode_t Foam::mode(const Foam::fileName&, bool) : name:"/home/mattijs/OpenFOAM/mattijs-extensions/doc/Notes/GlobalFile_UGM2017/pitzDaily/processor0/0/polyMesh/tetBasePtIs.gz"
[0] bool Foam::isFile(const Foam::fileName&, bool, bool) : name:"/home/mattijs/OpenFOAM/mattijs-extensions/doc/Notes/GlobalFile_UGM2017/pitzDaily/processor0/0/polyMesh/tetBasePtIs" checkGzip:1
mode
[0] mode_t Foam::mode(const Foam::fileName&, bool) : name:"/home/mattijs/OpenFOAM/mattijs-extensions/doc/Notes/GlobalFile_UGM2017/pitzDaily/processor0/0/polyMesh/tetBasePtIs"
mode
[0] mode_t Foam::mode(const Foam::fileName&, bool) : name:"/home/mattijs/OpenFOAM/mattijs-extensions/doc/Notes/GlobalFile_UGM2017/pitzDaily/processor0/0/polyMesh/tetBasePtIs.gz"
[0] bool Foam::isFile(const Foam::fileName&, bool, bool) : name:"/home/mattijs/OpenFOAM/mattijs-extensions/doc/Notes/GlobalFile_UGM2017/pitzDaily/processor1/0/polyMesh/tetBasePtIs" checkGzip:1
mode
[0] mode_t Foam::mode(const Foam::fileName&, bool) : name:"/home/mattijs/OpenFOAM/mattijs-extensions/doc/Notes/GlobalFile_UGM2017/pitzDaily/processor1/0/polyMesh/tetBasePtIs"
mode
[0] mode_t Foam::mode(const Foam::fileName&, bool) : name:"/home/mattijs/OpenFOAM/mattijs-extensions/doc/Notes/GlobalFile_UGM2017/pitzDaily/processor1/0/polyMesh/tetBasePtIs.gz"
[0] bool Foam::isFile(const Foam::fileName&, bool, bool) : name:"/home/mattijs/OpenFOAM/mattijs-extensions/doc/Notes/GlobalFile_UGM2017/pitzDaily/processor2/0/polyMesh/tetBasePtIs" checkGzip:1
mode
[0] mode_t Foam::mode(const Foam::fileName&, bool) : name:"/home/mattijs/OpenFOAM/mattijs-extensions/doc/Notes/GlobalFile_UGM2017/pitzDaily/processor2/0/polyMesh/tetBasePtIs"
mode
[0] mode_t Foam::mode(const Foam::fileName&, bool) : name:"/home/mattijs/OpenFOAM/mattijs-extensions/doc/Notes/GlobalFile_UGM2017/pitzDaily/processor2/0/polyMesh/tetBasePtIs.gz"
[0] bool Foam::isFile(const Foam::fileName&, bool, bool) : name:"/home/mattijs/OpenFOAM/mattijs-extensions/doc/Notes/GlobalFile_UGM2017/pitzDaily/processor3/0/polyMesh/tetBasePtIs" checkGzip:1
mode
[0] mode_t Foam::mode(const Foam::fileName&, bool) : name:"/home/mattijs/OpenFOAM/mattijs-extensions/doc/Notes/GlobalFile_UGM2017/pitzDaily/processor3/0/polyMesh/tetBasePtIs"
mode
[0] mode_t Foam::mode(const Foam::fileName&, bool) : name:"/home/mattijs/OpenFOAM/mattijs-extensions/doc/Notes/GlobalFile_UGM2017/pitzDaily/processor3/0/polyMesh/tetBasePtIs.gz"
[0] bool Foam::isFile(const Foam::fileName&, bool, bool) : name:"/home/mattijs/OpenFOAM/mattijs-extensions/doc/Notes/GlobalFile_UGM2017/pitzDaily/processors/0/polyMesh/pointZones" checkGzip:1
mode
[0] mode_t Foam::mode(const Foam::fileName&, bool) : name:"/home/mattijs/OpenFOAM/mattijs-extensions/doc/Notes/GlobalFile_UGM2017/pitzDaily/processors/0/polyMesh/pointZones"
mode
[0] mode_t Foam::mode(const Foam::fileName&, bool) : name:"/home/mattijs/OpenFOAM/mattijs-extensions/doc/Notes/GlobalFile_UGM2017/pitzDaily/processors/0/polyMesh/pointZones.gz"
[0] bool Foam::isFile(const Foam::fileName&, bool, bool) : name:"/home/mattijs/OpenFOAM/mattijs-extensions/doc/Notes/GlobalFile_UGM2017/pitzDaily/processor0/0/polyMesh/pointZones" checkGzip:1
mode
[0] mode_t Foam::mode(const Foam::fileName&, bool) : name:"/home/mattijs/OpenFOAM/mattijs-extensions/doc/Notes/GlobalFile_UGM2017/pitzDaily/processor0/0/polyMesh/pointZones"
mode
[0] mode_t Foam::mode(const Foam::fileName&, bool) : name:"/home/mattijs/OpenFOAM/mattijs-extensions/doc/Notes/GlobalFile_UGM2017/pitzDaily/processor0/0/polyMesh/pointZones.gz"
[0] bool Foam::isFile(const Foam::fileName&, bool, bool) : name:"/home/mattijs/OpenFOAM/mattijs-extensions/doc/Notes/GlobalFile_UGM2017/pitzDaily/processor1/0/polyMesh/pointZones" checkGzip:1
mode
[0] mode_t Foam::mode(const Foam::fileName&, bool) : name:"/home/mattijs/OpenFOAM/mattijs-extensions/doc/Notes/GlobalFile_UGM2017/pitzDaily/processor1/0/polyMesh/pointZones"
mode
[0] mode_t Foam::mode(const Foam::fileName&, bool) : name:"/home/mattijs/OpenFOAM/mattijs-extensions/doc/Notes/GlobalFile_UGM2017/pitzDaily/processor1/0/polyMesh/pointZones.gz"
[0] bool Foam::isFile(const Foam::fileName&, bool, bool) : name:"/home/mattijs/OpenFOAM/mattijs-extensions/doc/Notes/GlobalFile_UGM2017/pitzDaily/processor2/0/polyMesh/pointZones" checkGzip:1
mode
[0] mode_t Foam::mode(const Foam::fileName&, bool) : name:"/home/mattijs/OpenFOAM/mattijs-extensions/doc/Notes/GlobalFile_UGM2017/pitzDaily/processor2/0/polyMesh/pointZones"
mode
[0] mode_t Foam::mode(const Foam::fileName&, bool) : name:"/home/mattijs/OpenFOAM/mattijs-extensions/doc/Notes/GlobalFile_UGM2017/pitzDaily/processor2/0/polyMesh/pointZones.gz"
[0] bool Foam::isFile(const Foam::fileName&, bool, bool) : name:"/home/mattijs/OpenFOAM/mattijs-extensions/doc/Notes/GlobalFile_UGM2017/pitzDaily/processor3/0/polyMesh/pointZones" checkGzip:1
mode
[0] mode_t Foam::mode(const Foam::fileName&, bool) : name:"/home/mattijs/OpenFOAM/mattijs-extensions/doc/Notes/GlobalFile_UGM2017/pitzDaily/processor3/0/polyMesh/pointZones"
mode
[0] mode_t Foam::mode(const Foam::fileName&, bool) : name:"/home/mattijs/OpenFOAM/mattijs-extensions/doc/Notes/GlobalFile_UGM2017/pitzDaily/processor3/0/polyMesh/pointZones.gz"
[0] bool Foam::isFile(const Foam::fileName&, bool, bool) : name:"/home/mattijs/OpenFOAM/mattijs-extensions/doc/Notes/GlobalFile_UGM2017/pitzDaily/processors/0/polyMesh/pointZones" checkGzip:1
mode
[0] mode_t Foam::mode(const Foam::fileName&, bool) : name:"/home/mattijs/OpenFOAM/mattijs-extensions/doc/Notes/GlobalFile_UGM2017/pitzDaily/processors/0/polyMesh/pointZones"
mode
[0] mode_t Foam::mode(const Foam::fileName&, bool) : name:"/home/mattijs/OpenFOAM/mattijs-extensions/doc/Notes/GlobalFile_UGM2017/pitzDaily/processors/0/polyMesh/pointZones.gz"
[0] bool Foam::isFile(const Foam::fileName&, bool, bool) : name:"/home/mattijs/OpenFOAM/mattijs-extensions/doc/Notes/GlobalFile_UGM2017/pitzDaily/processor0/0/polyMesh/pointZones" checkGzip:1
mode
[0] mode_t Foam::mode(const Foam::fileName&, bool) : name:"/home/mattijs/OpenFOAM/mattijs-extensions/doc/Notes/GlobalFile_UGM2017/pitzDaily/processor0/0/polyMesh/pointZones"
mode
[0] mode_t Foam::mode(const Foam::fileName&, bool) : name:"/home/mattijs/OpenFOAM/mattijs-extensions/doc/Notes/GlobalFile_UGM2017/pitzDaily/processor0/0/polyMesh/pointZones.gz"
[0] bool Foam::isFile(const Foam::fileName&, bool, bool) : name:"/home/mattijs/OpenFOAM/mattijs-extensions/doc/Notes/GlobalFile_UGM2017/pitzDaily/processor1/0/polyMesh/pointZones" checkGzip:1
mode
[0] mode_t Foam::mode(const Foam::fileName&, bool) : name:"/home/mattijs/OpenFOAM/mattijs-extensions/doc/Notes/GlobalFile_UGM2017/pitzDaily/processor1/0/polyMesh/pointZones"
mode
[0] mode_t Foam::mode(const Foam::fileName&, bool) : name:"/home/mattijs/OpenFOAM/mattijs-extensions/doc/Notes/GlobalFile_UGM2017/pitzDaily/processor1/0/polyMesh/pointZones.gz"
[0] bool Foam::isFile(const Foam::fileName&, bool, bool) : name:"/home/mattijs/OpenFOAM/mattijs-extensions/doc/Notes/GlobalFile_UGM2017/pitzDaily/processor2/0/polyMesh/pointZones" checkGzip:1
mode
[0] mode_t Foam::mode(const Foam::fileName&, bool) : name:"/home/mattijs/OpenFOAM/mattijs-extensions/doc/Notes/GlobalFile_UGM2017/pitzDaily/processor2/0/polyMesh/pointZones"
mode
[0] mode_t Foam::mode(const Foam::fileName&, bool) : name:"/home/mattijs/OpenFOAM/mattijs-extensions/doc/Notes/GlobalFile_UGM2017/pitzDaily/processor2/0/polyMesh/pointZones.gz"
[0] bool Foam::isFile(const Foam::fileName&, bool, bool) : name:"/home/mattijs/OpenFOAM/mattijs-extensions/doc/Notes/GlobalFile_UGM2017/pitzDaily/processor3/0/polyMesh/pointZones" checkGzip:1
mode
[0] mode_t Foam::mode(const Foam::fileName&, bool) : name:"/home/mattijs/OpenFOAM/mattijs-extensions/doc/Notes/GlobalFile_UGM2017/pitzDaily/processor3/0/polyMesh/pointZones"
mode
[0] mode_t Foam::mode(const Foam::fileName&, bool) : name:"/home/mattijs/OpenFOAM/mattijs-extensions/doc/Notes/GlobalFile_UGM2017/pitzDaily/processor3/0/polyMesh/pointZones.gz"
[0] bool Foam::isFile(const Foam::fileName&, bool, bool) : name:"/home/mattijs/OpenFOAM/mattijs-extensions/doc/Notes/GlobalFile_UGM2017/pitzDaily/processors/constant/polyMesh/pointZones" checkGzip:1
mode
[0] mode_t Foam::mode(const Foam::fileName&, bool) : name:"/home/mattijs/OpenFOAM/mattijs-extensions/doc/Notes/GlobalFile_UGM2017/pitzDaily/processors/constant/polyMesh/pointZones"
mode
[0] mode_t Foam::mode(const Foam::fileName&, bool) : name:"/home/mattijs/OpenFOAM/mattijs-extensions/doc/Notes/GlobalFile_UGM2017/pitzDaily/processors/constant/polyMesh/pointZones.gz"
[0] bool Foam::isFile(const Foam::fileName&, bool, bool) : name:"/home/mattijs/OpenFOAM/mattijs-extensions/doc/Notes/GlobalFile_UGM2017/pitzDaily/processor0/constant/polyMesh/pointZones" checkGzip:1
mode
[0] mode_t Foam::mode(const Foam::fileName&, bool) : name:"/home/mattijs/OpenFOAM/mattijs-extensions/doc/Notes/GlobalFile_UGM2017/pitzDaily/processor0/constant/polyMesh/pointZones"
mode
[0] mode_t Foam::mode(const Foam::fileName&, bool) : name:"/home/mattijs/OpenFOAM/mattijs-extensions/doc/Notes/GlobalFile_UGM2017/pitzDaily/processor0/constant/polyMesh/pointZones.gz"
[0] bool Foam::isFile(const Foam::fileName&, bool, bool) : name:"/home/mattijs/OpenFOAM/mattijs-extensions/doc/Notes/GlobalFile_UGM2017/pitzDaily/processor1/constant/polyMesh/pointZones" checkGzip:1
mode
[0] mode_t Foam::mode(const Foam::fileName&, bool) : name:"/home/mattijs/OpenFOAM/mattijs-extensions/doc/Notes/GlobalFile_UGM2017/pitzDaily/processor1/constant/polyMesh/pointZones"
mode
[0] mode_t Foam::mode(const Foam::fileName&, bool) : name:"/home/mattijs/OpenFOAM/mattijs-extensions/doc/Notes/GlobalFile_UGM2017/pitzDaily/processor1/constant/polyMesh/pointZones.gz"
[0] bool Foam::isFile(const Foam::fileName&, bool, bool) : name:"/home/mattijs/OpenFOAM/mattijs-extensions/doc/Notes/GlobalFile_UGM2017/pitzDaily/processor2/constant/polyMesh/pointZones" checkGzip:1
mode
[0] mode_t Foam::mode(const Foam::fileName&, bool) : name:"/home/mattijs/OpenFOAM/mattijs-extensions/doc/Notes/GlobalFile_UGM2017/pitzDaily/processor2/constant/polyMesh/pointZones"
mode
[0] mode_t Foam::mode(const Foam::fileName&, bool) : name:"/home/mattijs/OpenFOAM/mattijs-extensions/doc/Notes/GlobalFile_UGM2017/pitzDaily/processor2/constant/polyMesh/pointZones.gz"
[0] bool Foam::isFile(const Foam::fileName&, bool, bool) : name:"/home/mattijs/OpenFOAM/mattijs-extensions/doc/Notes/GlobalFile_UGM2017/pitzDaily/processor3/constant/polyMesh/pointZones" checkGzip:1
mode
[0] mode_t Foam::mode(const Foam::fileName&, bool) : name:"/home/mattijs/OpenFOAM/mattijs-extensions/doc/Notes/GlobalFile_UGM2017/pitzDaily/processor3/constant/polyMesh/pointZones"
mode
[0] mode_t Foam::mode(const Foam::fileName&, bool) : name:"/home/mattijs/OpenFOAM/mattijs-extensions/doc/Notes/GlobalFile_UGM2017/pitzDaily/processor3/constant/polyMesh/pointZones.gz"
[0] bool Foam::isFile(const Foam::fileName&, bool, bool) : name:"/home/mattijs/OpenFOAM/mattijs-extensions/doc/Notes/GlobalFile_UGM2017/pitzDaily/processors/constant/polyMesh/pointZones" checkGzip:1
mode
[0] mode_t Foam::mode(const Foam::fileName&, bool) : name:"/home/mattijs/OpenFOAM/mattijs-extensions/doc/Notes/GlobalFile_UGM2017/pitzDaily/processors/constant/polyMesh/pointZones"
mode
[0] mode_t Foam::mode(const Foam::fileName&, bool) : name:"/home/mattijs/OpenFOAM/mattijs-extensions/doc/Notes/GlobalFile_UGM2017/pitzDaily/processors/constant/polyMesh/pointZones.gz"
[0] bool Foam::isFile(const Foam::fileName&, bool, bool) : name:"/home/mattijs/OpenFOAM/mattijs-extensions/doc/Notes/GlobalFile_UGM2017/pitzDaily/processor0/constant/polyMesh/pointZones" checkGzip:1
mode
[0] mode_t Foam::mode(const Foam::fileName&, bool) : name:"/home/mattijs/OpenFOAM/mattijs-extensions/doc/Notes/GlobalFile_UGM2017/pitzDaily/processor0/constant/polyMesh/pointZones"
mode
[0] mode_t Foam::mode(const Foam::fileName&, bool) : name:"/home/mattijs/OpenFOAM/mattijs-extensions/doc/Notes/GlobalFile_UGM2017/pitzDaily/processor0/constant/polyMesh/pointZones.gz"
[0] bool Foam::isFile(const Foam::fileName&, bool, bool) : name:"/home/mattijs/OpenFOAM/mattijs-extensions/doc/Notes/GlobalFile_UGM2017/pitzDaily/processor1/constant/polyMesh/pointZones" checkGzip:1
mode
[0] mode_t Foam::mode(const Foam::fileName&, bool) : name:"/home/mattijs/OpenFOAM/mattijs-extensions/doc/Notes/GlobalFile_UGM2017/pitzDaily/processor1/constant/polyMesh/pointZones"
mode
[0] mode_t Foam::mode(const Foam::fileName&, bool) : name:"/home/mattijs/OpenFOAM/mattijs-extensions/doc/Notes/GlobalFile_UGM2017/pitzDaily/processor1/constant/polyMesh/pointZones.gz"
[0] bool Foam::isFile(const Foam::fileName&, bool, bool) : name:"/home/mattijs/OpenFOAM/mattijs-extensions/doc/Notes/GlobalFile_UGM2017/pitzDaily/processor2/constant/polyMesh/pointZones" checkGzip:1
mode
[0] mode_t Foam::mode(const Foam::fileName&, bool) : name:"/home/mattijs/OpenFOAM/mattijs-extensions/doc/Notes/GlobalFile_UGM2017/pitzDaily/processor2/constant/polyMesh/pointZones"
mode
[0] mode_t Foam::mode(const Foam::fileName&, bool) : name:"/home/mattijs/OpenFOAM/mattijs-extensions/doc/Notes/GlobalFile_UGM2017/pitzDaily/processor2/constant/polyMesh/pointZones.gz"
[0] bool Foam::isFile(const Foam::fileName&, bool, bool) : name:"/home/mattijs/OpenFOAM/mattijs-extensions/doc/Notes/GlobalFile_UGM2017/pitzDaily/processor3/constant/polyMesh/pointZones" checkGzip:1
mode
[0] mode_t Foam::mode(const Foam::fileName&, bool) : name:"/home/mattijs/OpenFOAM/mattijs-extensions/doc/Notes/GlobalFile_UGM2017/pitzDaily/processor3/constant/polyMesh/pointZones"
mode
[0] mode_t Foam::mode(const Foam::fileName&, bool) : name:"/home/mattijs/OpenFOAM/mattijs-extensions/doc/Notes/GlobalFile_UGM2017/pitzDaily/processor3/constant/polyMesh/pointZones.gz"
[0] bool Foam::isFile(const Foam::fileName&, bool, bool) : name:"/home/mattijs/OpenFOAM/mattijs-extensions/doc/Notes/GlobalFile_UGM2017/pitzDaily/processors/constant/polyMesh/pointZones" checkGzip:1
mode
[0] mode_t Foam::mode(const Foam::fileName&, bool) : name:"/home/mattijs/OpenFOAM/mattijs-extensions/doc/Notes/GlobalFile_UGM2017/pitzDaily/processors/constant/polyMesh/pointZones"
mode
[0] mode_t Foam::mode(const Foam::fileName&, bool) : name:"/home/mattijs/OpenFOAM/mattijs-extensions/doc/Notes/GlobalFile_UGM2017/pitzDaily/processors/constant/polyMesh/pointZones.gz"
[0] bool Foam::isFile(const Foam::fileName&, bool, bool) : name:"/home/mattijs/OpenFOAM/mattijs-extensions/doc/Notes/GlobalFile_UGM2017/pitzDaily/processor0/constant/polyMesh/pointZones" checkGzip:1
mode
[0] mode_t Foam::mode(const Foam::fileName&, bool) : name:"/home/mattijs/OpenFOAM/mattijs-extensions/doc/Notes/GlobalFile_UGM2017/pitzDaily/processor0/constant/polyMesh/pointZones"
mode
[0] mode_t Foam::mode(const Foam::fileName&, bool) : name:"/home/mattijs/OpenFOAM/mattijs-extensions/doc/Notes/GlobalFile_UGM2017/pitzDaily/processor0/constant/polyMesh/pointZones.gz"
[0] bool Foam::isFile(const Foam::fileName&, bool, bool) : name:"/home/mattijs/OpenFOAM/mattijs-extensions/doc/Notes/GlobalFile_UGM2017/pitzDaily/processors/0/polyMesh/pointZones" checkGzip:1
mode
[0] mode_t Foam::mode(const Foam::fileName&, bool) : name:"/home/mattijs/OpenFOAM/mattijs-extensions/doc/Notes/GlobalFile_UGM2017/pitzDaily/processors/0/polyMesh/pointZones"
mode
[0] mode_t Foam::mode(const Foam::fileName&, bool) : name:"/home/mattijs/OpenFOAM/mattijs-extensions/doc/Notes/GlobalFile_UGM2017/pitzDaily/processors/0/polyMesh/pointZones.gz"
[0] bool Foam::isFile(const Foam::fileName&, bool, bool) : name:"/home/mattijs/OpenFOAM/mattijs-extensions/doc/Notes/GlobalFile_UGM2017/pitzDaily/processor0/0/polyMesh/pointZones" checkGzip:1
mode
[0] mode_t Foam::mode(const Foam::fileName&, bool) : name:"/home/mattijs/OpenFOAM/mattijs-extensions/doc/Notes/GlobalFile_UGM2017/pitzDaily/processor0/0/polyMesh/pointZones"
mode
[0] mode_t Foam::mode(const Foam::fileName&, bool) : name:"/home/mattijs/OpenFOAM/mattijs-extensions/doc/Notes/GlobalFile_UGM2017/pitzDaily/processor0/0/polyMesh/pointZones.gz"
[0] bool Foam::isFile(const Foam::fileName&, bool, bool) : name:"/home/mattijs/OpenFOAM/mattijs-extensions/doc/Notes/GlobalFile_UGM2017/pitzDaily/processor0/constant/polyMesh/pointZones" checkGzip:1
mode
[0] mode_t Foam::mode(const Foam::fileName&, bool) : name:"/home/mattijs/OpenFOAM/mattijs-extensions/doc/Notes/GlobalFile_UGM2017/pitzDaily/processor0/constant/polyMesh/pointZones"
mode
[0] mode_t Foam::mode(const Foam::fileName&, bool) : name:"/home/mattijs/OpenFOAM/mattijs-extensions/doc/Notes/GlobalFile_UGM2017/pitzDaily/processor0/constant/polyMesh/pointZones.gz"
[0] bool Foam::isFile(const Foam::fileName&, bool, bool) : name:"/home/mattijs/OpenFOAM/mattijs-extensions/doc/Notes/GlobalFile_UGM2017/pitzDaily/processor1/constant/polyMesh/pointZones" checkGzip:1
mode
[0] mode_t Foam::mode(const Foam::fileName&, bool) : name:"/home/mattijs/OpenFOAM/mattijs-extensions/doc/Notes/GlobalFile_UGM2017/pitzDaily/processor1/constant/polyMesh/pointZones"
mode
[0] mode_t Foam::mode(const Foam::fileName&, bool) : name:"/home/mattijs/OpenFOAM/mattijs-extensions/doc/Notes/GlobalFile_UGM2017/pitzDaily/processor1/constant/polyMesh/pointZones.gz"
[0] bool Foam::isFile(const Foam::fileName&, bool, bool) : name:"/home/mattijs/OpenFOAM/mattijs-extensions/doc/Notes/GlobalFile_UGM2017/pitzDaily/processor2/constant/polyMesh/pointZones" checkGzip:1
mode
[0] mode_t Foam::mode(const Foam::fileName&, bool) : name:"/home/mattijs/OpenFOAM/mattijs-extensions/doc/Notes/GlobalFile_UGM2017/pitzDaily/processor2/constant/polyMesh/pointZones"
mode
[0] mode_t Foam::mode(const Foam::fileName&, bool) : name:"/home/mattijs/OpenFOAM/mattijs-extensions/doc/Notes/GlobalFile_UGM2017/pitzDaily/processor2/constant/polyMesh/pointZones.gz"
[0] bool Foam::isFile(const Foam::fileName&, bool, bool) : name:"/home/mattijs/OpenFOAM/mattijs-extensions/doc/Notes/GlobalFile_UGM2017/pitzDaily/processor3/constant/polyMesh/pointZones" checkGzip:1
mode
[0] mode_t Foam::mode(const Foam::fileName&, bool) : name:"/home/mattijs/OpenFOAM/mattijs-extensions/doc/Notes/GlobalFile_UGM2017/pitzDaily/processor3/constant/polyMesh/pointZones"
mode
[0] mode_t Foam::mode(const Foam::fileName&, bool) : name:"/home/mattijs/OpenFOAM/mattijs-extensions/doc/Notes/GlobalFile_UGM2017/pitzDaily/processor3/constant/polyMesh/pointZones.gz"
[0] bool Foam::isFile(const Foam::fileName&, bool, bool) : name:"/home/mattijs/OpenFOAM/mattijs-extensions/doc/Notes/GlobalFile_UGM2017/pitzDaily/processors/0/polyMesh/faceZones" checkGzip:1
mode
[0] mode_t Foam::mode(const Foam::fileName&, bool) : name:"/home/mattijs/OpenFOAM/mattijs-extensions/doc/Notes/GlobalFile_UGM2017/pitzDaily/processors/0/polyMesh/faceZones"
mode
[0] mode_t Foam::mode(const Foam::fileName&, bool) : name:"/home/mattijs/OpenFOAM/mattijs-extensions/doc/Notes/GlobalFile_UGM2017/pitzDaily/processors/0/polyMesh/faceZones.gz"
[0] bool Foam::isFile(const Foam::fileName&, bool, bool) : name:"/home/mattijs/OpenFOAM/mattijs-extensions/doc/Notes/GlobalFile_UGM2017/pitzDaily/processor0/0/polyMesh/faceZones" checkGzip:1
mode
[0] mode_t Foam::mode(const Foam::fileName&, bool) : name:"/home/mattijs/OpenFOAM/mattijs-extensions/doc/Notes/GlobalFile_UGM2017/pitzDaily/processor0/0/polyMesh/faceZones"
mode
[0] mode_t Foam::mode(const Foam::fileName&, bool) : name:"/home/mattijs/OpenFOAM/mattijs-extensions/doc/Notes/GlobalFile_UGM2017/pitzDaily/processor0/0/polyMesh/faceZones.gz"
[0] bool Foam::isFile(const Foam::fileName&, bool, bool) : name:"/home/mattijs/OpenFOAM/mattijs-extensions/doc/Notes/GlobalFile_UGM2017/pitzDaily/processor1/0/polyMesh/faceZones" checkGzip:1
mode
[0] mode_t Foam::mode(const Foam::fileName&, bool) : name:"/home/mattijs/OpenFOAM/mattijs-extensions/doc/Notes/GlobalFile_UGM2017/pitzDaily/processor1/0/polyMesh/faceZones"
mode
[0] mode_t Foam::mode(const Foam::fileName&, bool) : name:"/home/mattijs/OpenFOAM/mattijs-extensions/doc/Notes/GlobalFile_UGM2017/pitzDaily/processor1/0/polyMesh/faceZones.gz"
[0] bool Foam::isFile(const Foam::fileName&, bool, bool) : name:"/home/mattijs/OpenFOAM/mattijs-extensions/doc/Notes/GlobalFile_UGM2017/pitzDaily/processor2/0/polyMesh/faceZones" checkGzip:1
mode
[0] mode_t Foam::mode(const Foam::fileName&, bool) : name:"/home/mattijs/OpenFOAM/mattijs-extensions/doc/Notes/GlobalFile_UGM2017/pitzDaily/processor2/0/polyMesh/faceZones"
mode
[0] mode_t Foam::mode(const Foam::fileName&, bool) : name:"/home/mattijs/OpenFOAM/mattijs-extensions/doc/Notes/GlobalFile_UGM2017/pitzDaily/processor2/0/polyMesh/faceZones.gz"
[0] bool Foam::isFile(const Foam::fileName&, bool, bool) : name:"/home/mattijs/OpenFOAM/mattijs-extensions/doc/Notes/GlobalFile_UGM2017/pitzDaily/processor3/0/polyMesh/faceZones" checkGzip:1
mode
[0] mode_t Foam::mode(const Foam::fileName&, bool) : name:"/home/mattijs/OpenFOAM/mattijs-extensions/doc/Notes/GlobalFile_UGM2017/pitzDaily/processor3/0/polyMesh/faceZones"
mode
[0] mode_t Foam::mode(const Foam::fileName&, bool) : name:"/home/mattijs/OpenFOAM/mattijs-extensions/doc/Notes/GlobalFile_UGM2017/pitzDaily/processor3/0/polyMesh/faceZones.gz"
[0] bool Foam::isFile(const Foam::fileName&, bool, bool) : name:"/home/mattijs/OpenFOAM/mattijs-extensions/doc/Notes/GlobalFile_UGM2017/pitzDaily/processors/0/polyMesh/faceZones" checkGzip:1
mode
[0] mode_t Foam::mode(const Foam::fileName&, bool) : name:"/home/mattijs/OpenFOAM/mattijs-extensions/doc/Notes/GlobalFile_UGM2017/pitzDaily/processors/0/polyMesh/faceZones"
mode
[0] mode_t Foam::mode(const Foam::fileName&, bool) : name:"/home/mattijs/OpenFOAM/mattijs-extensions/doc/Notes/GlobalFile_UGM2017/pitzDaily/processors/0/polyMesh/faceZones.gz"
[0] bool Foam::isFile(const Foam::fileName&, bool, bool) : name:"/home/mattijs/OpenFOAM/mattijs-extensions/doc/Notes/GlobalFile_UGM2017/pitzDaily/processor0/0/polyMesh/faceZones" checkGzip:1
mode
[0] mode_t Foam::mode(const Foam::fileName&, bool) : name:"/home/mattijs/OpenFOAM/mattijs-extensions/doc/Notes/GlobalFile_UGM2017/pitzDaily/processor0/0/polyMesh/faceZones"
mode
[0] mode_t Foam::mode(const Foam::fileName&, bool) : name:"/home/mattijs/OpenFOAM/mattijs-extensions/doc/Notes/GlobalFile_UGM2017/pitzDaily/processor0/0/polyMesh/faceZones.gz"
[0] bool Foam::isFile(const Foam::fileName&, bool, bool) : name:"/home/mattijs/OpenFOAM/mattijs-extensions/doc/Notes/GlobalFile_UGM2017/pitzDaily/processor1/0/polyMesh/faceZones" checkGzip:1
mode
[0] mode_t Foam::mode(const Foam::fileName&, bool) : name:"/home/mattijs/OpenFOAM/mattijs-extensions/doc/Notes/GlobalFile_UGM2017/pitzDaily/processor1/0/polyMesh/faceZones"
mode
[0] mode_t Foam::mode(const Foam::fileName&, bool) : name:"/home/mattijs/OpenFOAM/mattijs-extensions/doc/Notes/GlobalFile_UGM2017/pitzDaily/processor1/0/polyMesh/faceZones.gz"
[0] bool Foam::isFile(const Foam::fileName&, bool, bool) : name:"/home/mattijs/OpenFOAM/mattijs-extensions/doc/Notes/GlobalFile_UGM2017/pitzDaily/processor2/0/polyMesh/faceZones" checkGzip:1
mode
[0] mode_t Foam::mode(const Foam::fileName&, bool) : name:"/home/mattijs/OpenFOAM/mattijs-extensions/doc/Notes/GlobalFile_UGM2017/pitzDaily/processor2/0/polyMesh/faceZones"
mode
[0] mode_t Foam::mode(const Foam::fileName&, bool) : name:"/home/mattijs/OpenFOAM/mattijs-extensions/doc/Notes/GlobalFile_UGM2017/pitzDaily/processor2/0/polyMesh/faceZones.gz"
[0] bool Foam::isFile(const Foam::fileName&, bool, bool) : name:"/home/mattijs/OpenFOAM/mattijs-extensions/doc/Notes/GlobalFile_UGM2017/pitzDaily/processor3/0/polyMesh/faceZones" checkGzip:1
mode
[0] mode_t Foam::mode(const Foam::fileName&, bool) : name:"/home/mattijs/OpenFOAM/mattijs-extensions/doc/Notes/GlobalFile_UGM2017/pitzDaily/processor3/0/polyMesh/faceZones"
mode
[0] mode_t Foam::mode(const Foam::fileName&, bool) : name:"/home/mattijs/OpenFOAM/mattijs-extensions/doc/Notes/GlobalFile_UGM2017/pitzDaily/processor3/0/polyMesh/faceZones.gz"
[0] bool Foam::isFile(const Foam::fileName&, bool, bool) : name:"/home/mattijs/OpenFOAM/mattijs-extensions/doc/Notes/GlobalFile_UGM2017/pitzDaily/processors/constant/polyMesh/faceZones" checkGzip:1
mode
[0] mode_t Foam::mode(const Foam::fileName&, bool) : name:"/home/mattijs/OpenFOAM/mattijs-extensions/doc/Notes/GlobalFile_UGM2017/pitzDaily/processors/constant/polyMesh/faceZones"
mode
[0] mode_t Foam::mode(const Foam::fileName&, bool) : name:"/home/mattijs/OpenFOAM/mattijs-extensions/doc/Notes/GlobalFile_UGM2017/pitzDaily/processors/constant/polyMesh/faceZones.gz"
[0] bool Foam::isFile(const Foam::fileName&, bool, bool) : name:"/home/mattijs/OpenFOAM/mattijs-extensions/doc/Notes/GlobalFile_UGM2017/pitzDaily/processor0/constant/polyMesh/faceZones" checkGzip:1
mode
[0] mode_t Foam::mode(const Foam::fileName&, bool) : name:"/home/mattijs/OpenFOAM/mattijs-extensions/doc/Notes/GlobalFile_UGM2017/pitzDaily/processor0/constant/polyMesh/faceZones"
mode
[0] mode_t Foam::mode(const Foam::fileName&, bool) : name:"/home/mattijs/OpenFOAM/mattijs-extensions/doc/Notes/GlobalFile_UGM2017/pitzDaily/processor0/constant/polyMesh/faceZones.gz"
[0] bool Foam::isFile(const Foam::fileName&, bool, bool) : name:"/home/mattijs/OpenFOAM/mattijs-extensions/doc/Notes/GlobalFile_UGM2017/pitzDaily/processor1/constant/polyMesh/faceZones" checkGzip:1
mode
[0] mode_t Foam::mode(const Foam::fileName&, bool) : name:"/home/mattijs/OpenFOAM/mattijs-extensions/doc/Notes/GlobalFile_UGM2017/pitzDaily/processor1/constant/polyMesh/faceZones"
mode
[0] mode_t Foam::mode(const Foam::fileName&, bool) : name:"/home/mattijs/OpenFOAM/mattijs-extensions/doc/Notes/GlobalFile_UGM2017/pitzDaily/processor1/constant/polyMesh/faceZones.gz"
[0] bool Foam::isFile(const Foam::fileName&, bool, bool) : name:"/home/mattijs/OpenFOAM/mattijs-extensions/doc/Notes/GlobalFile_UGM2017/pitzDaily/processor2/constant/polyMesh/faceZones" checkGzip:1
mode
[0] mode_t Foam::mode(const Foam::fileName&, bool) : name:"/home/mattijs/OpenFOAM/mattijs-extensions/doc/Notes/GlobalFile_UGM2017/pitzDaily/processor2/constant/polyMesh/faceZones"
mode
[0] mode_t Foam::mode(const Foam::fileName&, bool) : name:"/home/mattijs/OpenFOAM/mattijs-extensions/doc/Notes/GlobalFile_UGM2017/pitzDaily/processor2/constant/polyMesh/faceZones.gz"
[0] bool Foam::isFile(const Foam::fileName&, bool, bool) : name:"/home/mattijs/OpenFOAM/mattijs-extensions/doc/Notes/GlobalFile_UGM2017/pitzDaily/processor3/constant/polyMesh/faceZones" checkGzip:1
mode
[0] mode_t Foam::mode(const Foam::fileName&, bool) : name:"/home/mattijs/OpenFOAM/mattijs-extensions/doc/Notes/GlobalFile_UGM2017/pitzDaily/processor3/constant/polyMesh/faceZones"
mode
[0] mode_t Foam::mode(const Foam::fileName&, bool) : name:"/home/mattijs/OpenFOAM/mattijs-extensions/doc/Notes/GlobalFile_UGM2017/pitzDaily/processor3/constant/polyMesh/faceZones.gz"
[0] bool Foam::isFile(const Foam::fileName&, bool, bool) : name:"/home/mattijs/OpenFOAM/mattijs-extensions/doc/Notes/GlobalFile_UGM2017/pitzDaily/processors/constant/polyMesh/faceZones" checkGzip:1
mode
[0] mode_t Foam::mode(const Foam::fileName&, bool) : name:"/home/mattijs/OpenFOAM/mattijs-extensions/doc/Notes/GlobalFile_UGM2017/pitzDaily/processors/constant/polyMesh/faceZones"
mode
[0] mode_t Foam::mode(const Foam::fileName&, bool) : name:"/home/mattijs/OpenFOAM/mattijs-extensions/doc/Notes/GlobalFile_UGM2017/pitzDaily/processors/constant/polyMesh/faceZones.gz"
[0] bool Foam::isFile(const Foam::fileName&, bool, bool) : name:"/home/mattijs/OpenFOAM/mattijs-extensions/doc/Notes/GlobalFile_UGM2017/pitzDaily/processor0/constant/polyMesh/faceZones" checkGzip:1
mode
[0] mode_t Foam::mode(const Foam::fileName&, bool) : name:"/home/mattijs/OpenFOAM/mattijs-extensions/doc/Notes/GlobalFile_UGM2017/pitzDaily/processor0/constant/polyMesh/faceZones"
mode
[0] mode_t Foam::mode(const Foam::fileName&, bool) : name:"/home/mattijs/OpenFOAM/mattijs-extensions/doc/Notes/GlobalFile_UGM2017/pitzDaily/processor0/constant/polyMesh/faceZones.gz"
[0] bool Foam::isFile(const Foam::fileName&, bool, bool) : name:"/home/mattijs/OpenFOAM/mattijs-extensions/doc/Notes/GlobalFile_UGM2017/pitzDaily/processor1/constant/polyMesh/faceZones" checkGzip:1
mode
[0] mode_t Foam::mode(const Foam::fileName&, bool) : name:"/home/mattijs/OpenFOAM/mattijs-extensions/doc/Notes/GlobalFile_UGM2017/pitzDaily/processor1/constant/polyMesh/faceZones"
mode
[0] mode_t Foam::mode(const Foam::fileName&, bool) : name:"/home/mattijs/OpenFOAM/mattijs-extensions/doc/Notes/GlobalFile_UGM2017/pitzDaily/processor1/constant/polyMesh/faceZones.gz"
[0] bool Foam::isFile(const Foam::fileName&, bool, bool) : name:"/home/mattijs/OpenFOAM/mattijs-extensions/doc/Notes/GlobalFile_UGM2017/pitzDaily/processor2/constant/polyMesh/faceZones" checkGzip:1
mode
[0] mode_t Foam::mode(const Foam::fileName&, bool) : name:"/home/mattijs/OpenFOAM/mattijs-extensions/doc/Notes/GlobalFile_UGM2017/pitzDaily/processor2/constant/polyMesh/faceZones"
mode
[0] mode_t Foam::mode(const Foam::fileName&, bool) : name:"/home/mattijs/OpenFOAM/mattijs-extensions/doc/Notes/GlobalFile_UGM2017/pitzDaily/processor2/constant/polyMesh/faceZones.gz"
[0] bool Foam::isFile(const Foam::fileName&, bool, bool) : name:"/home/mattijs/OpenFOAM/mattijs-extensions/doc/Notes/GlobalFile_UGM2017/pitzDaily/processor3/constant/polyMesh/faceZones" checkGzip:1
mode
[0] mode_t Foam::mode(const Foam::fileName&, bool) : name:"/home/mattijs/OpenFOAM/mattijs-extensions/doc/Notes/GlobalFile_UGM2017/pitzDaily/processor3/constant/polyMesh/faceZones"
mode
[0] mode_t Foam::mode(const Foam::fileName&, bool) : name:"/home/mattijs/OpenFOAM/mattijs-extensions/doc/Notes/GlobalFile_UGM2017/pitzDaily/processor3/constant/polyMesh/faceZones.gz"
[0] bool Foam::isFile(const Foam::fileName&, bool, bool) : name:"/home/mattijs/OpenFOAM/mattijs-extensions/doc/Notes/GlobalFile_UGM2017/pitzDaily/processors/constant/polyMesh/faceZones" checkGzip:1
mode
[0] mode_t Foam::mode(const Foam::fileName&, bool) : name:"/home/mattijs/OpenFOAM/mattijs-extensions/doc/Notes/GlobalFile_UGM2017/pitzDaily/processors/constant/polyMesh/faceZones"
mode
[0] mode_t Foam::mode(const Foam::fileName&, bool) : name:"/home/mattijs/OpenFOAM/mattijs-extensions/doc/Notes/GlobalFile_UGM2017/pitzDaily/processors/constant/polyMesh/faceZones.gz"
[0] bool Foam::isFile(const Foam::fileName&, bool, bool) : name:"/home/mattijs/OpenFOAM/mattijs-extensions/doc/Notes/GlobalFile_UGM2017/pitzDaily/processor0/constant/polyMesh/faceZones" checkGzip:1
mode
[0] mode_t Foam::mode(const Foam::fileName&, bool) : name:"/home/mattijs/OpenFOAM/mattijs-extensions/doc/Notes/GlobalFile_UGM2017/pitzDaily/processor0/constant/polyMesh/faceZones"
mode
[0] mode_t Foam::mode(const Foam::fileName&, bool) : name:"/home/mattijs/OpenFOAM/mattijs-extensions/doc/Notes/GlobalFile_UGM2017/pitzDaily/processor0/constant/polyMesh/faceZones.gz"
[0] bool Foam::isFile(const Foam::fileName&, bool, bool) : name:"/home/mattijs/OpenFOAM/mattijs-extensions/doc/Notes/GlobalFile_UGM2017/pitzDaily/processors/0/polyMesh/faceZones" checkGzip:1
mode
[0] mode_t Foam::mode(const Foam::fileName&, bool) : name:"/home/mattijs/OpenFOAM/mattijs-extensions/doc/Notes/GlobalFile_UGM2017/pitzDaily/processors/0/polyMesh/faceZones"
mode
[0] mode_t Foam::mode(const Foam::fileName&, bool) : name:"/home/mattijs/OpenFOAM/mattijs-extensions/doc/Notes/GlobalFile_UGM2017/pitzDaily/processors/0/polyMesh/faceZones.gz"
[0] bool Foam::isFile(const Foam::fileName&, bool, bool) : name:"/home/mattijs/OpenFOAM/mattijs-extensions/doc/Notes/GlobalFile_UGM2017/pitzDaily/processor0/0/polyMesh/faceZones" checkGzip:1
mode
[0] mode_t Foam::mode(const Foam::fileName&, bool) : name:"/home/mattijs/OpenFOAM/mattijs-extensions/doc/Notes/GlobalFile_UGM2017/pitzDaily/processor0/0/polyMesh/faceZones"
mode
[0] mode_t Foam::mode(const Foam::fileName&, bool) : name:"/home/mattijs/OpenFOAM/mattijs-extensions/doc/Notes/GlobalFile_UGM2017/pitzDaily/processor0/0/polyMesh/faceZones.gz"
[0] bool Foam::isFile(const Foam::fileName&, bool, bool) : name:"/home/mattijs/OpenFOAM/mattijs-extensions/doc/Notes/GlobalFile_UGM2017/pitzDaily/processor0/constant/polyMesh/faceZones" checkGzip:1
mode
[0] mode_t Foam::mode(const Foam::fileName&, bool) : name:"/home/mattijs/OpenFOAM/mattijs-extensions/doc/Notes/GlobalFile_UGM2017/pitzDaily/processor0/constant/polyMesh/faceZones"
mode
[0] mode_t Foam::mode(const Foam::fileName&, bool) : name:"/home/mattijs/OpenFOAM/mattijs-extensions/doc/Notes/GlobalFile_UGM2017/pitzDaily/processor0/constant/polyMesh/faceZones.gz"
[0] bool Foam::isFile(const Foam::fileName&, bool, bool) : name:"/home/mattijs/OpenFOAM/mattijs-extensions/doc/Notes/GlobalFile_UGM2017/pitzDaily/processor1/constant/polyMesh/faceZones" checkGzip:1
mode
[0] mode_t Foam::mode(const Foam::fileName&, bool) : name:"/home/mattijs/OpenFOAM/mattijs-extensions/doc/Notes/GlobalFile_UGM2017/pitzDaily/processor1/constant/polyMesh/faceZones"
mode
[0] mode_t Foam::mode(const Foam::fileName&, bool) : name:"/home/mattijs/OpenFOAM/mattijs-extensions/doc/Notes/GlobalFile_UGM2017/pitzDaily/processor1/constant/polyMesh/faceZones.gz"
[0] bool Foam::isFile(const Foam::fileName&, bool, bool) : name:"/home/mattijs/OpenFOAM/mattijs-extensions/doc/Notes/GlobalFile_UGM2017/pitzDaily/processor2/constant/polyMesh/faceZones" checkGzip:1
mode
[0] mode_t Foam::mode(const Foam::fileName&, bool) : name:"/home/mattijs/OpenFOAM/mattijs-extensions/doc/Notes/GlobalFile_UGM2017/pitzDaily/processor2/constant/polyMesh/faceZones"
mode
[0] mode_t Foam::mode(const Foam::fileName&, bool) : name:"/home/mattijs/OpenFOAM/mattijs-extensions/doc/Notes/GlobalFile_UGM2017/pitzDaily/processor2/constant/polyMesh/faceZones.gz"
[0] bool Foam::isFile(const Foam::fileName&, bool, bool) : name:"/home/mattijs/OpenFOAM/mattijs-extensions/doc/Notes/GlobalFile_UGM2017/pitzDaily/processor3/constant/polyMesh/faceZones" checkGzip:1
mode
[0] mode_t Foam::mode(const Foam::fileName&, bool) : name:"/home/mattijs/OpenFOAM/mattijs-extensions/doc/Notes/GlobalFile_UGM2017/pitzDaily/processor3/constant/polyMesh/faceZones"
mode
[0] mode_t Foam::mode(const Foam::fileName&, bool) : name:"/home/mattijs/OpenFOAM/mattijs-extensions/doc/Notes/GlobalFile_UGM2017/pitzDaily/processor3/constant/polyMesh/faceZones.gz"
[0] bool Foam::isFile(const Foam::fileName&, bool, bool) : name:"/home/mattijs/OpenFOAM/mattijs-extensions/doc/Notes/GlobalFile_UGM2017/pitzDaily/processors/0/polyMesh/cellZones" checkGzip:1
mode
[0] mode_t Foam::mode(const Foam::fileName&, bool) : name:"/home/mattijs/OpenFOAM/mattijs-extensions/doc/Notes/GlobalFile_UGM2017/pitzDaily/processors/0/polyMesh/cellZones"
mode
[0] mode_t Foam::mode(const Foam::fileName&, bool) : name:"/home/mattijs/OpenFOAM/mattijs-extensions/doc/Notes/GlobalFile_UGM2017/pitzDaily/processors/0/polyMesh/cellZones.gz"
[0] bool Foam::isFile(const Foam::fileName&, bool, bool) : name:"/home/mattijs/OpenFOAM/mattijs-extensions/doc/Notes/GlobalFile_UGM2017/pitzDaily/processor0/0/polyMesh/cellZones" checkGzip:1
mode
[0] mode_t Foam::mode(const Foam::fileName&, bool) : name:"/home/mattijs/OpenFOAM/mattijs-extensions/doc/Notes/GlobalFile_UGM2017/pitzDaily/processor0/0/polyMesh/cellZones"
mode
[0] mode_t Foam::mode(const Foam::fileName&, bool) : name:"/home/mattijs/OpenFOAM/mattijs-extensions/doc/Notes/GlobalFile_UGM2017/pitzDaily/processor0/0/polyMesh/cellZones.gz"
[0] bool Foam::isFile(const Foam::fileName&, bool, bool) : name:"/home/mattijs/OpenFOAM/mattijs-extensions/doc/Notes/GlobalFile_UGM2017/pitzDaily/processor1/0/polyMesh/cellZones" checkGzip:1
mode
[0] mode_t Foam::mode(const Foam::fileName&, bool) : name:"/home/mattijs/OpenFOAM/mattijs-extensions/doc/Notes/GlobalFile_UGM2017/pitzDaily/processor1/0/polyMesh/cellZones"
mode
[0] mode_t Foam::mode(const Foam::fileName&, bool) : name:"/home/mattijs/OpenFOAM/mattijs-extensions/doc/Notes/GlobalFile_UGM2017/pitzDaily/processor1/0/polyMesh/cellZones.gz"
[0] bool Foam::isFile(const Foam::fileName&, bool, bool) : name:"/home/mattijs/OpenFOAM/mattijs-extensions/doc/Notes/GlobalFile_UGM2017/pitzDaily/processor2/0/polyMesh/cellZones" checkGzip:1
mode
[0] mode_t Foam::mode(const Foam::fileName&, bool) : name:"/home/mattijs/OpenFOAM/mattijs-extensions/doc/Notes/GlobalFile_UGM2017/pitzDaily/processor2/0/polyMesh/cellZones"
mode
[0] mode_t Foam::mode(const Foam::fileName&, bool) : name:"/home/mattijs/OpenFOAM/mattijs-extensions/doc/Notes/GlobalFile_UGM2017/pitzDaily/processor2/0/polyMesh/cellZones.gz"
[0] bool Foam::isFile(const Foam::fileName&, bool, bool) : name:"/home/mattijs/OpenFOAM/mattijs-extensions/doc/Notes/GlobalFile_UGM2017/pitzDaily/processor3/0/polyMesh/cellZones" checkGzip:1
mode
[0] mode_t Foam::mode(const Foam::fileName&, bool) : name:"/home/mattijs/OpenFOAM/mattijs-extensions/doc/Notes/GlobalFile_UGM2017/pitzDaily/processor3/0/polyMesh/cellZones"
mode
[0] mode_t Foam::mode(const Foam::fileName&, bool) : name:"/home/mattijs/OpenFOAM/mattijs-extensions/doc/Notes/GlobalFile_UGM2017/pitzDaily/processor3/0/polyMesh/cellZones.gz"
[0] bool Foam::isFile(const Foam::fileName&, bool, bool) : name:"/home/mattijs/OpenFOAM/mattijs-extensions/doc/Notes/GlobalFile_UGM2017/pitzDaily/processors/0/polyMesh/cellZones" checkGzip:1
mode
[0] mode_t Foam::mode(const Foam::fileName&, bool) : name:"/home/mattijs/OpenFOAM/mattijs-extensions/doc/Notes/GlobalFile_UGM2017/pitzDaily/processors/0/polyMesh/cellZones"
mode
[0] mode_t Foam::mode(const Foam::fileName&, bool) : name:"/home/mattijs/OpenFOAM/mattijs-extensions/doc/Notes/GlobalFile_UGM2017/pitzDaily/processors/0/polyMesh/cellZones.gz"
[0] bool Foam::isFile(const Foam::fileName&, bool, bool) : name:"/home/mattijs/OpenFOAM/mattijs-extensions/doc/Notes/GlobalFile_UGM2017/pitzDaily/processor0/0/polyMesh/cellZones" checkGzip:1
mode
[0] mode_t Foam::mode(const Foam::fileName&, bool) : name:"/home/mattijs/OpenFOAM/mattijs-extensions/doc/Notes/GlobalFile_UGM2017/pitzDaily/processor0/0/polyMesh/cellZones"
mode
[0] mode_t Foam::mode(const Foam::fileName&, bool) : name:"/home/mattijs/OpenFOAM/mattijs-extensions/doc/Notes/GlobalFile_UGM2017/pitzDaily/processor0/0/polyMesh/cellZones.gz"
[0] bool Foam::isFile(const Foam::fileName&, bool, bool) : name:"/home/mattijs/OpenFOAM/mattijs-extensions/doc/Notes/GlobalFile_UGM2017/pitzDaily/processor1/0/polyMesh/cellZones" checkGzip:1
mode
[0] mode_t Foam::mode(const Foam::fileName&, bool) : name:"/home/mattijs/OpenFOAM/mattijs-extensions/doc/Notes/GlobalFile_UGM2017/pitzDaily/processor1/0/polyMesh/cellZones"
mode
[0] mode_t Foam::mode(const Foam::fileName&, bool) : name:"/home/mattijs/OpenFOAM/mattijs-extensions/doc/Notes/GlobalFile_UGM2017/pitzDaily/processor1/0/polyMesh/cellZones.gz"
[0] bool Foam::isFile(const Foam::fileName&, bool, bool) : name:"/home/mattijs/OpenFOAM/mattijs-extensions/doc/Notes/GlobalFile_UGM2017/pitzDaily/processor2/0/polyMesh/cellZones" checkGzip:1
mode
[0] mode_t Foam::mode(const Foam::fileName&, bool) : name:"/home/mattijs/OpenFOAM/mattijs-extensions/doc/Notes/GlobalFile_UGM2017/pitzDaily/processor2/0/polyMesh/cellZones"
mode
[0] mode_t Foam::mode(const Foam::fileName&, bool) : name:"/home/mattijs/OpenFOAM/mattijs-extensions/doc/Notes/GlobalFile_UGM2017/pitzDaily/processor2/0/polyMesh/cellZones.gz"
[0] bool Foam::isFile(const Foam::fileName&, bool, bool) : name:"/home/mattijs/OpenFOAM/mattijs-extensions/doc/Notes/GlobalFile_UGM2017/pitzDaily/processor3/0/polyMesh/cellZones" checkGzip:1
mode
[0] mode_t Foam::mode(const Foam::fileName&, bool) : name:"/home/mattijs/OpenFOAM/mattijs-extensions/doc/Notes/GlobalFile_UGM2017/pitzDaily/processor3/0/polyMesh/cellZones"
mode
[0] mode_t Foam::mode(const Foam::fileName&, bool) : name:"/home/mattijs/OpenFOAM/mattijs-extensions/doc/Notes/GlobalFile_UGM2017/pitzDaily/processor3/0/polyMesh/cellZones.gz"
[0] bool Foam::isFile(const Foam::fileName&, bool, bool) : name:"/home/mattijs/OpenFOAM/mattijs-extensions/doc/Notes/GlobalFile_UGM2017/pitzDaily/processors/constant/polyMesh/cellZones" checkGzip:1
mode
[0] mode_t Foam::mode(const Foam::fileName&, bool) : name:"/home/mattijs/OpenFOAM/mattijs-extensions/doc/Notes/GlobalFile_UGM2017/pitzDaily/processors/constant/polyMesh/cellZones"
mode
[0] mode_t Foam::mode(const Foam::fileName&, bool) : name:"/home/mattijs/OpenFOAM/mattijs-extensions/doc/Notes/GlobalFile_UGM2017/pitzDaily/processors/constant/polyMesh/cellZones.gz"
[0] bool Foam::isFile(const Foam::fileName&, bool, bool) : name:"/home/mattijs/OpenFOAM/mattijs-extensions/doc/Notes/GlobalFile_UGM2017/pitzDaily/processor0/constant/polyMesh/cellZones" checkGzip:1
mode
[0] mode_t Foam::mode(const Foam::fileName&, bool) : name:"/home/mattijs/OpenFOAM/mattijs-extensions/doc/Notes/GlobalFile_UGM2017/pitzDaily/processor0/constant/polyMesh/cellZones"
mode
[0] mode_t Foam::mode(const Foam::fileName&, bool) : name:"/home/mattijs/OpenFOAM/mattijs-extensions/doc/Notes/GlobalFile_UGM2017/pitzDaily/processor0/constant/polyMesh/cellZones.gz"
[0] bool Foam::isFile(const Foam::fileName&, bool, bool) : name:"/home/mattijs/OpenFOAM/mattijs-extensions/doc/Notes/GlobalFile_UGM2017/pitzDaily/processor1/constant/polyMesh/cellZones" checkGzip:1
mode
[0] mode_t Foam::mode(const Foam::fileName&, bool) : name:"/home/mattijs/OpenFOAM/mattijs-extensions/doc/Notes/GlobalFile_UGM2017/pitzDaily/processor1/constant/polyMesh/cellZones"
mode
[0] mode_t Foam::mode(const Foam::fileName&, bool) : name:"/home/mattijs/OpenFOAM/mattijs-extensions/doc/Notes/GlobalFile_UGM2017/pitzDaily/processor1/constant/polyMesh/cellZones.gz"
[0] bool Foam::isFile(const Foam::fileName&, bool, bool) : name:"/home/mattijs/OpenFOAM/mattijs-extensions/doc/Notes/GlobalFile_UGM2017/pitzDaily/processor2/constant/polyMesh/cellZones" checkGzip:1
mode
[0] mode_t Foam::mode(const Foam::fileName&, bool) : name:"/home/mattijs/OpenFOAM/mattijs-extensions/doc/Notes/GlobalFile_UGM2017/pitzDaily/processor2/constant/polyMesh/cellZones"
mode
[0] mode_t Foam::mode(const Foam::fileName&, bool) : name:"/home/mattijs/OpenFOAM/mattijs-extensions/doc/Notes/GlobalFile_UGM2017/pitzDaily/processor2/constant/polyMesh/cellZones.gz"
[0] bool Foam::isFile(const Foam::fileName&, bool, bool) : name:"/home/mattijs/OpenFOAM/mattijs-extensions/doc/Notes/GlobalFile_UGM2017/pitzDaily/processor3/constant/polyMesh/cellZones" checkGzip:1
mode
[0] mode_t Foam::mode(const Foam::fileName&, bool) : name:"/home/mattijs/OpenFOAM/mattijs-extensions/doc/Notes/GlobalFile_UGM2017/pitzDaily/processor3/constant/polyMesh/cellZones"
mode
[0] mode_t Foam::mode(const Foam::fileName&, bool) : name:"/home/mattijs/OpenFOAM/mattijs-extensions/doc/Notes/GlobalFile_UGM2017/pitzDaily/processor3/constant/polyMesh/cellZones.gz"
[0] bool Foam::isFile(const Foam::fileName&, bool, bool) : name:"/home/mattijs/OpenFOAM/mattijs-extensions/doc/Notes/GlobalFile_UGM2017/pitzDaily/processors/constant/polyMesh/cellZones" checkGzip:1
mode
[0] mode_t Foam::mode(const Foam::fileName&, bool) : name:"/home/mattijs/OpenFOAM/mattijs-extensions/doc/Notes/GlobalFile_UGM2017/pitzDaily/processors/constant/polyMesh/cellZones"
mode
[0] mode_t Foam::mode(const Foam::fileName&, bool) : name:"/home/mattijs/OpenFOAM/mattijs-extensions/doc/Notes/GlobalFile_UGM2017/pitzDaily/processors/constant/polyMesh/cellZones.gz"
[0] bool Foam::isFile(const Foam::fileName&, bool, bool) : name:"/home/mattijs/OpenFOAM/mattijs-extensions/doc/Notes/GlobalFile_UGM2017/pitzDaily/processor0/constant/polyMesh/cellZones" checkGzip:1
mode
[0] mode_t Foam::mode(const Foam::fileName&, bool) : name:"/home/mattijs/OpenFOAM/mattijs-extensions/doc/Notes/GlobalFile_UGM2017/pitzDaily/processor0/constant/polyMesh/cellZones"
mode
[0] mode_t Foam::mode(const Foam::fileName&, bool) : name:"/home/mattijs/OpenFOAM/mattijs-extensions/doc/Notes/GlobalFile_UGM2017/pitzDaily/processor0/constant/polyMesh/cellZones.gz"
[0] bool Foam::isFile(const Foam::fileName&, bool, bool) : name:"/home/mattijs/OpenFOAM/mattijs-extensions/doc/Notes/GlobalFile_UGM2017/pitzDaily/processor1/constant/polyMesh/cellZones" checkGzip:1
mode
[0] mode_t Foam::mode(const Foam::fileName&, bool) : name:"/home/mattijs/OpenFOAM/mattijs-extensions/doc/Notes/GlobalFile_UGM2017/pitzDaily/processor1/constant/polyMesh/cellZones"
mode
[0] mode_t Foam::mode(const Foam::fileName&, bool) : name:"/home/mattijs/OpenFOAM/mattijs-extensions/doc/Notes/GlobalFile_UGM2017/pitzDaily/processor1/constant/polyMesh/cellZones.gz"
[0] bool Foam::isFile(const Foam::fileName&, bool, bool) : name:"/home/mattijs/OpenFOAM/mattijs-extensions/doc/Notes/GlobalFile_UGM2017/pitzDaily/processor2/constant/polyMesh/cellZones" checkGzip:1
mode
[0] mode_t Foam::mode(const Foam::fileName&, bool) : name:"/home/mattijs/OpenFOAM/mattijs-extensions/doc/Notes/GlobalFile_UGM2017/pitzDaily/processor2/constant/polyMesh/cellZones"
mode
[0] mode_t Foam::mode(const Foam::fileName&, bool) : name:"/home/mattijs/OpenFOAM/mattijs-extensions/doc/Notes/GlobalFile_UGM2017/pitzDaily/processor2/constant/polyMesh/cellZones.gz"
[0] bool Foam::isFile(const Foam::fileName&, bool, bool) : name:"/home/mattijs/OpenFOAM/mattijs-extensions/doc/Notes/GlobalFile_UGM2017/pitzDaily/processor3/constant/polyMesh/cellZones" checkGzip:1
mode
[0] mode_t Foam::mode(const Foam::fileName&, bool) : name:"/home/mattijs/OpenFOAM/mattijs-extensions/doc/Notes/GlobalFile_UGM2017/pitzDaily/processor3/constant/polyMesh/cellZones"
mode
[0] mode_t Foam::mode(const Foam::fileName&, bool) : name:"/home/mattijs/OpenFOAM/mattijs-extensions/doc/Notes/GlobalFile_UGM2017/pitzDaily/processor3/constant/polyMesh/cellZones.gz"
[0] bool Foam::isFile(const Foam::fileName&, bool, bool) : name:"/home/mattijs/OpenFOAM/mattijs-extensions/doc/Notes/GlobalFile_UGM2017/pitzDaily/processors/constant/polyMesh/cellZones" checkGzip:1
mode
[0] mode_t Foam::mode(const Foam::fileName&, bool) : name:"/home/mattijs/OpenFOAM/mattijs-extensions/doc/Notes/GlobalFile_UGM2017/pitzDaily/processors/constant/polyMesh/cellZones"
mode
[0] mode_t Foam::mode(const Foam::fileName&, bool) : name:"/home/mattijs/OpenFOAM/mattijs-extensions/doc/Notes/GlobalFile_UGM2017/pitzDaily/processors/constant/polyMesh/cellZones.gz"
[0] bool Foam::isFile(const Foam::fileName&, bool, bool) : name:"/home/mattijs/OpenFOAM/mattijs-extensions/doc/Notes/GlobalFile_UGM2017/pitzDaily/processor0/constant/polyMesh/cellZones" checkGzip:1
mode
[...]
[0] double Foam::highResLastModified(const Foam::fileName&, bool) : name:"/home/mattijs/OpenFOAM/mattijs-extensions/doc/Notes/GlobalFile_UGM2017/pitzDaily/system/fvSolution"
highResLastModified
[0] double Foam::highResLastModified(const Foam::fileName&, bool) : name:"/home/mattijs/OpenFOAM/mattijs-extensions/doc/Notes/GlobalFile_UGM2017/pitzDaily/constant/transportProperties"
highResLastModified
[0] double Foam::highResLastModified(const Foam::fileName&, bool) : name:"/home/mattijs/OpenFOAM/mattijs-extensions/doc/Notes/GlobalFile_UGM2017/pitzDaily/constant/turbulenceProperties"
Time = 18

smoothSolver:  Solving for Ux, Initial residual = 0.0238572, Final residual = 0.00158468, No Iterations 6
smoothSolver:  Solving for Uy, Initial residual = 0.0387422, Final residual = 0.00365138, No Iterations 5
GAMG:  Solving for p, Initial residual = 0.0409415, Final residual = 0.0033724, No Iterations 3
time step continuity errors : sum local = 0.339123, global = -0.00737834, cumulative = 0.0248276
smoothSolver:  Solving for epsilon, Initial residual = 0.0257813, Final residual = 0.00249038, No Iterations 3
smoothSolver:  Solving for k, Initial residual = 0.0304648, Final residual = 0.00251263, No Iterations 4
ExecutionTime = 0.48 s  ClockTime = 1 s

highResLastModified
[0] double Foam::highResLastModified(const Foam::fileName&, bool) : name:"/home/mattijs/OpenFOAM/mattijs-extensions/doc/Notes/GlobalFile_UGM2017/pitzDaily/system/controlDict"
highResLastModified
[0] double Foam::highResLastModified(const Foam::fileName&, bool) : name:"/home/mattijs/OpenFOAM/mattijs-extensions/doc/Notes/GlobalFile_UGM2017/pitzDaily/system/fvSchemes"
highResLastModified
[0] double Foam::highResLastModified(const Foam::fileName&, bool) : name:"/home/mattijs/OpenFOAM/mattijs-extensions/doc/Notes/GlobalFile_UGM2017/pitzDaily/system/fvSolution"
highResLastModified
[0] double Foam::highResLastModified(const Foam::fileName&, bool) : name:"/home/mattijs/OpenFOAM/mattijs-extensions/doc/Notes/GlobalFile_UGM2017/pitzDaily/constant/transportProperties"
highResLastModified
[0] double Foam::highResLastModified(const Foam::fileName&, bool) : name:"/home/mattijs/OpenFOAM/mattijs-extensions/doc/Notes/GlobalFile_UGM2017/pitzDaily/constant/turbulenceProperties"
Time = 19

smoothSolver:  Solving for Ux, Initial residual = 0.0225603, Final residual = 0.00149737, No Iterations 6
smoothSolver:  Solving for Uy, Initial residual = 0.0372739, Final residual = 0.00356712, No Iterations 5
GAMG:  Solving for p, Initial residual = 0.0395311, Final residual = 0.00336925, No Iterations 3
time step continuity errors : sum local = 0.334304, global = -0.00871668, cumulative = 0.0161109
smoothSolver:  Solving for epsilon, Initial residual = 0.0242437, Final residual = 0.00238802, No Iterations 3
smoothSolver:  Solving for k, Initial residual = 0.0289599, Final residual = 0.00239939, No Iterations 4
ExecutionTime = 0.5 s  ClockTime = 1 s

highResLastModified
[0] double Foam::highResLastModified(const Foam::fileName&, bool) : name:"/home/mattijs/OpenFOAM/mattijs-extensions/doc/Notes/GlobalFile_UGM2017/pitzDaily/system/controlDict"
highResLastModified
[0] double Foam::highResLastModified(const Foam::fileName&, bool) : name:"/home/mattijs/OpenFOAM/mattijs-extensions/doc/Notes/GlobalFile_UGM2017/pitzDaily/system/fvSchemes"
highResLastModified
[0] double Foam::highResLastModified(const Foam::fileName&, bool) : name:"/home/mattijs/OpenFOAM/mattijs-extensions/doc/Notes/GlobalFile_UGM2017/pitzDaily/system/fvSolution"
highResLastModified
[0] double Foam::highResLastModified(const Foam::fileName&, bool) : name:"/home/mattijs/OpenFOAM/mattijs-extensions/doc/Notes/GlobalFile_UGM2017/pitzDaily/constant/transportProperties"
highResLastModified
[0] double Foam::highResLastModified(const Foam::fileName&, bool) : name:"/home/mattijs/OpenFOAM/mattijs-extensions/doc/Notes/GlobalFile_UGM2017/pitzDaily/constant/turbulenceProperties"
Time = 20

smoothSolver:  Solving for Ux, Initial residual = 0.0213261, Final residual = 0.00141508, No Iterations 6
smoothSolver:  Solving for Uy, Initial residual = 0.0359273, Final residual = 0.00347599, No Iterations 5
GAMG:  Solving for p, Initial residual = 0.0375858, Final residual = 0.00338196, No Iterations 3
time step continuity errors : sum local = 0.322391, global = -0.0102753, cumulative = 0.00583562
smoothSolver:  Solving for epsilon, Initial residual = 0.0227047, Final residual = 0.00225304, No Iterations 3
smoothSolver:  Solving for k, Initial residual = 0.0276345, Final residual = 0.0022959, No Iterations 4
mkDir
[0] bool Foam::mkDir(const Foam::fileName&, mode_t) : pathName:"/home/mattijs/OpenFOAM/mattijs-extensions/doc/Notes/GlobalFile_UGM2017/pitzDaily/processors/20/uniform" mode:511
mkDir
[0] bool Foam::mkDir(const Foam::fileName&, mode_t) : pathName:"/home/mattijs/OpenFOAM/mattijs-extensions/doc/Notes/GlobalFile_UGM2017/pitzDaily/processors/20/uniform" mode:511
[0] Foam::fileName::Type Foam::type(const Foam::fileName&, bool) : name:"/home/mattijs/OpenFOAM/mattijs-extensions/doc/Notes/GlobalFile_UGM2017/pitzDaily/processors/20/uniform/time.gz"
mode
[0] mode_t Foam::mode(const Foam::fileName&, bool) : name:"/home/mattijs/OpenFOAM/mattijs-extensions/doc/Notes/GlobalFile_UGM2017/pitzDaily/processors/20/uniform/time.gz"
[0] Foam::fileName::Type Foam::type(const Foam::fileName&, bool) : name:"/home/mattijs/OpenFOAM/mattijs-extensions/doc/Notes/GlobalFile_UGM2017/pitzDaily/processors/20/uniform/time"
mode
[0] mode_t Foam::mode(const Foam::fileName&, bool) : name:"/home/mattijs/OpenFOAM/mattijs-extensions/doc/Notes/GlobalFile_UGM2017/pitzDaily/processors/20/uniform/time"
ofstream
mkDir
[0] bool Foam::mkDir(const Foam::fileName&, mode_t) : pathName:"/home/mattijs/OpenFOAM/mattijs-extensions/doc/Notes/GlobalFile_UGM2017/pitzDaily/processors/20" mode:511
[2] lockMutex : index:0
[2] unlockMutex : index:0
[2] lockMutex : index:0
[2] unlockMutex : index:0
[2] lockMutex : index:0
[2] createThread : index:0
[3] lockMutex : index:0
[3] unlockMutex : index:0
[3] lockMutex : index:0
[3] unlockMutex : index:0
[3] lockMutex : index:0
[3] createThread : index:0
[3] unlockMutex : index:0
[3] lockMutex : index:0
[3] unlockMutex : index:0
[2] unlockMutex : index:0
lockMutex : index:[2] 0
[2] unlockMutex : index:0
[1] lockMutex : index:0
[1] unlockMutex : index:0
[0] lockMutex : index:0
[1] lockMutex : index:0
[1] unlockMutex : index:0
[1] lockMutex : index:0
[1] createThread : index:0
[0] unlockMutex : index:0
[0] lockMutex : index:0
[0] unlockMutex : index:0
[0] lockMutex : index:0
[0] createThread : index:0
[0] unlockMutex : index:0
lockMutex : index:[0] 0
[0] unlockMutex : index:0
[1] unlockMutex : index:0
lockMutex : index:[1] 0
[1] unlockMutex : index:0
mkDir
[0] bool Foam::mkDir(const Foam::fileName&, mode_t) : pathName:"/home/mattijs/OpenFOAM/mattijs-extensions/doc/Notes/GlobalFile_UGM2017/pitzDaily/processors/20" mode:511
mkDir
[0] bool Foam::mkDir(const Foam::fileName&, mode_t) : pathName:"/home/mattijs/OpenFOAM/mattijs-extensions/doc/Notes/GlobalFile_UGM2017/pFoam::fileName::Type Foam::type(const Foam::fileName&, bool)i : name:t"z/Dhoaimley//mparttoijcses/sOopresn/2F0O"A mode:M/m511a
ttijs-extensions/doc/Notes/GlobalFile_UGM2017/pitzDaily/processors/20/nut.gz"[0] 
mode
[0] mode_t Foam::mode(const Foam::fileName&, bool) : name:"/home/mattijs/OpenFOAM/mattijs-extensions/doc/Notes/GlobalFile_UGM2017/pitzDaily/processors/20/nut.gz"
[0] Foam::fileName::Type Foam::type(const Foam::fileName&, bool) : name:"/home/mattijs/OpenFOAM/mattijs-extensions/doc/Notes/GlobalFile_UGM2017/pitzDaily/processors/20/nut"
mode
[0] mode_t Foam::mode(const Foam::fileName&, bool) : name:"/home/mattijs/OpenFOAM/mattijs-extensions/doc/Notes/GlobalFile_UGM2017/pitzDaily/processors/20/nut"
ofstream
[1] lockMutex : index:0
[1] unlockMutex : index:0
[1] lockMutex : index:0
[1] unlockMutex : index:0
[2] lockMutex : index:0
[2] unlockMutex : index:0
[2] lockMutex : index:0
[2] unlockMutex : index:0
[3] lockMutex : index:0
[3] unlockMutex : index:0
[3] lockMutex : index:0
[3] unlockMutex : index:0
[0] lockMutex : index:0
[0] unlockMutex : index:0
[0] lockMutex : index:0
[0] unlockMutex : index:0
[3] lockMutex : index:0
[3] unlockMutex : index:0
[3] lockMutex : index:0
[3] unlockMutex : index:0
[3] lockMutex : index:0
[3] createThread : index:0
[2] lockMutex : index:0
[2] unlockMutex : index:0
[2] lockMutex : index:0
[2] unlockMutex : index:0
[2] lockMutex : index:0
[2] createThread : index:0
[3] unlockMutex : index:0
[3] lockMutex : index:0
[2] unlockMutex : index:0
lockMutex : index:[2] 0
[2] unlockMutex : index:0
[3] unlockMutex : index:0
[0] lockMutex : index:0
[0] unlockMutex : index:0
[0] lockMutex : index:0
[0] unlockMutex : index:0
[0] lockMutex : index:0
[0] createThread : index:0
[0] unlockMutex : index:0
lockMutex : index:[0] 0
[0] unlockMutex : index:0
mkDir
[0] bool Foam::mkDir(const Foam::fileName&, mode_t) : pathName:"/home/mattijs/OpenFOAM/mattijs-extensions/doc/Notes/GlobalFile_UGM2017/pitzDaily/processors/20" mode:511
[0] Foam::fileName::Type Foam::type(const Foam::fileName&, bool) : name:"/home/mattijs/OpenFOAM/mattijs-extensions/doc/Notes/GlobalFile_UGM2017/pitzDaily/processors/20/U.gz"
mode
[0] mode_t Foam::mode(const Foam::fileName&, bool) : name:"/home/mattijs/OpenFOAM/mattijs-extensions/doc/Notes/GlobalFile_UGM2017/pitzDaily/processors/20/U.gz"
[0] Foam::fileName::Type Foam::type(const Foam::fileName&, bool) : name:"/home/mattijs/OpenFOAM/mattijs-extensions/doc/Notes/GlobalFile_UGM2017/pitzDaily/processors/20/U"
mode
[0] mode_t Foam::mode(const Foam::fileName&, bool) : name:"/home/mattijs/OpenFOAM/mattijs-extensions/doc/Notes/GlobalFile_UGM2017/pitzDaily/processors/20/U"
ofstream
[1] lockMutex : index:0
[1] unlockMutex : index:0
[1] lockMutex : index:0
[1] unlockMutex : index:0
[1] lockMutex : index:0
[1] createThread : index:0
mkDir
[0] bool Foam::mkDir(const Foam::fileName&, mode_t) : pathName:"/home/mattijs/OpenFOAM/mattijs-extensions/doc/Notes/GlobalFile_UGM2017/pitzDaily/processors/20" mode:511
[1] unlockMutex : index:0
lockMutex : index:[1] 0
[1] unlockMutex : index:0
[1] lockMutex : index:0
[1] unlockMutex : index:0
[1] lockMutex : index:0
[1] unlockMutex : index:0
[2] lockMutex : index:0
[2] unlockMutex : index:0
[2] lockMutex : index:0
[2] unlockMutex : index:0
[3] lockMutex : index:0
[3] unlockMutex : index:0
[3] lockMutex : index:0
[3] unlockMutex : index:0
[0] lockMutex : index:0
[0] unlockMutex : index:0
[0] lockMutex : index:0
[0] unlockMutex : index:0
[3] lockMutex : index:0
[3] unlockMutex : index:0
[3] lockMutex : index:0
[3] unlockMutex : index:0
[3] lockMutex : index:0
[3] createThread : index:0
[2] lockMutex : index:0
[2] unlockMutex : index:0
[2] lockMutex : index:0
[2] unlockMutex : index:0
[2] lockMutex : index:0
[2] createThread : index:0
[2] unlockMutex : index:0
lockMutex : index:[2] 0
[2] unlockMutex : index:0
[0] lockMutex : index:0
[0] unlockMutex : index:0
[0] lockMutex : index:0
[0] unlockMutex : index:0
[0] lockMutex : index:0
[0] createThread : index:0
[1] lockMutex : index:0
[1] unlockMutex : index:0
[1] lockMutex : index:0
[1] unlockMutex : index:0
[1] lockMutex : index:0
[1] createThread : index:0
[0] unlockMutex : index:0
lockMutex : index:[0] 0
[0] unlockMutex : index:0
mkDir
[1] unlockMutex : index:0
[0] bool Foam::mkDir(const Foam::fileName&, mode_t) : pathName:"/home/mattijs/OpenFOAM/mattijs-extensions/doc/Notes/GlobalFile_UGM2017/pitzDaily/processors/20" mode:511
lockMutex : index:[1] 0
[1] unlockMutex : index:0
[0] Foam::fileName::Type Foam::type(const Foam::fileName&, bool) : name:"/home/mattijs/OpenFOAM/mattijs-extensions/doc/Notes/GlobalFile_UGM2017/pitzDaily/processors/20/k.gz"
mode
[0] mode_t Foam::mode(const Foam::fileName&, bool) : name:"/home/mattijs/OpenFOAM/mattijs-extensions/doc/Notes/GlobalFile_UGM2017/pitzDaily/processors/20/k.gz"
[0] Foam::fileName::Type Foam::type(const Foam::fileName&, bool) : name:"/home/mattijs/OpenFOAM/mattijs-extensions/doc/Notes/GlobalFile_UGM2017/pitzDaily/processors/20/k"
mode
[3] unlockMutex : index:0
[0] mode_t Foam::mode(const Foam::fileName&, bool) : name:"/home/mattijs/OpenFOAM/mattijs-extensions/doc/Notes/GlobalFile_UGM2017/pitzDaily/processors/20/k"
ofstream
[3] lockMutex : index:0
mkDir
[0] bool Foam::mkDir(const Foam::fileName&, mode_t) : pathName:"/home/mattijs/OpenFOAM/mattijs-extensions/doc/Notes/GlobalFile_UGM2017/pitzDaily/processors/20" mode:511
[3] unlockMutex : index:0
[1] lockMutex : index:0
[1] unlockMutex : index:0
[1] lockMutex : index:0
[1] unlockMutex : index:0
[2] lockMutex : index:0
[2] unlockMutex : index:0
[3] lockMutex : index:0
[3] unlockMutex : index:0
[3] lockMutex : index:0
[3] unlockMutex : index:0
[2] lockMutex : index:0
[2] unlockMutex : index:0
[0] lockMutex : index:0
[0] unlockMutex : index:0
[0] lockMutex : index:0
[0] unlockMutex : index:0
[2] lockMutex : index:0
[2] unlockMutex : index:0
[2] lockMutex : index:0
[2] unlockMutex : index:0
[2] lockMutex : index:0
[2] createThread : index:0
[2] unlockMutex : index:0
[2] lockMutex : index:0
[2] unlockMutex : index:0
[3] lockMutex : index:0
[3] unlockMutex : index:0
[3] lockMutex : index:0
[3] unlockMutex : index:0
[3] lockMutex : index:0
[3] createThread : index:0
[3] unlockMutex : index:0
[3] lockMutex : index:0
[3] unlockMutex : index:0
[0] lockMutex : index:0
[0] unlockMutex : index:0
[0] lockMutex : index:0
[0] unlockMutex : index:0
[0] lockMutex : index:0
[0] createThread : index:0
[0] unlockMutex : index:0
lockMutex : index:[0] 0
[0] unlockMutex : index:0
mkDir
[1] lockMutex : index:0
[1] unlockMutex : index:0
[0] bool Foam::mkDir(const Foam::fileName&, mode_t) : pathName:"/home/mattijs/OpenFOAM/mattijs-extensions/doc/Notes/GlobalFile_UGM2017/pitzDaily/processors/20" mode:511
[1] lockMutex : index:0
[1] unlockMutex : index:0
[1] lockMutex : index:0
[1] createThread : index:0
[0] Foam::fileName::Type Foam::type(const Foam::fileName&, bool) : name:"/home/mattijs/OpenFOAM/mattijs-extensions/doc/Notes/GlobalFile_UGM2017/pitzDaily/processors/20/phi.gz"
mode
[0] mode_t Foam::mode(const Foam::fileName&, bool) : name:"/home/mattijs/OpenFOAM/mattijs-extensions/doc/Notes/GlobalFile_UGM2017/pitzDaily/processors/20/phi.gz"
[0] Foam::fileName::Type Foam::type(const Foam::fileName&, bool) : name:"/home/mattijs/OpenFOAM/mattijs-extensions/doc/Notes/GlobalFile_UGM2017/pitzDaily/processors/20/phi"
mode
[0] mode_t Foam::mode(const Foam::fileName&, bool) : name:"/home/mattijs/OpenFOAM/mattijs-extensions/doc/Notes/GlobalFile_UGM2017/pitzDaily/processors/20/phi"
ofstream
[1] unlockMutex : index:0
lockMutex : index:[1] 0
[1] unlockMutex : index:0
mkDir
[0] bool Foam::mkDir(const Foam::fileName&, mode_t) : pathName:"/home/mattijs/OpenFOAM/mattijs-extensions/doc/Notes/GlobalFile_UGM2017/pitzDaily/processors/20" mode:511
[1] lockMutex : index:0
[1] unlockMutex : index:0
[1] lockMutex : index:0
[1] unlockMutex : index:0
[2] lockMutex : index:0
[2] unlockMutex : index:0
[2] lockMutex : index:0
[2] unlockMutex : index:0
[3] lockMutex : index:0
[3] unlockMutex : index:0
[3] lockMutex : index:0
[3] unlockMutex : index:0
[0] lockMutex : index:0
[0] unlockMutex : index:0
[0] lockMutex : index:0
[0] unlockMutex : index:0
[2] lockMutex : index:0
[2] unlockMutex : index:0
[2] lockMutex : index:0
[2] unlockMutex : index:0
[2] lockMutex : index:0
[2] createThread : index:0
[2] unlockMutex : index:0
lockMutex : index:[2] 0
[2] unlockMutex : index:0
[0] lockMutex : index:0
[0] unlockMutex : index:0
[0] lockMutex : index:0
[0] unlockMutex : index:0
[0] lockMutex : index:0
[0] createThread : index:0
[0] unlockMutex : index:0
lockMutex : index:[0] 0
[0] unlockMutex : index:0
mkDir
[0] bool Foam::mkDir(const Foam::fileName&, mode_t) : pathName:"/home/mattijs/OpenFOAM/mattijs-extensions/doc/Notes/GlobalFile_UGM2017/pitzDaily/processors/20" mode:511
[0] Foam::fileName::Type Foam::type(const Foam::fileName&, bool) : name:"/home/mattijs/OpenFOAM/mattijs-extensions/doc/Notes/GlobalFile_UGM2017/pitzDaily/processors/20/p.gz"
mode
[0] mode_t Foam::mode(const Foam::fileName&, bool) : name:"/home/mattijs/OpenFOAM/mattijs-extensions/doc/Notes/GlobalFile_UGM2017/pitzDaily/processors/20/p.gz"
[0] Foam::fileName::Type Foam::type(const Foam::fileName&, bool) : name:"/home/mattijs/OpenFOAM/mattijs-extensions/doc/Notes/GlobalFile_UGM2017/pitzDaily/processors/20/p"
mode
[1] lockMutex : index:0
[1] unlockMutex : index:0
[1] lockMutex : index:0
[0] mode_t Foam::mode(const Foam::fileName&, bool) : name:"/home/mattijs/OpenFOAM/mattijs-extensions/doc/Notes/GlobalFile_UGM2017/pitzDaily/processors/20/p"
ofstream
[3] lockMutex : index:0
[3] unlockMutex : index:0
[3] lockMutex : index:0
[3] unlockMutex : index:0
[1] unlockMutex : index:0
[1] lockMutex : index:0
[1] createThread : index:0
[3] lockMutex : index:0
[3] createThread : index:0
[1] unlockMutex : index:0
[1] lockMutex : index:0
[1] unlockMutex : index:0
[3] unlockMutex : index:0
[3] lockMutex : index:0
[3] unlockMutex : index:0
mkDir
[0] bool Foam::mkDir(const Foam::fileName&, mode_t) : pathName:"/home/mattijs/OpenFOAM/mattijs-extensions/doc/Notes/GlobalFile_UGM2017/pitzDaily/processors/20" mode:511
[1] lockMutex : index:0
[1] unlockMutex : index:0
[1] lockMutex : index:0
[1] unlockMutex : index:0
[2] lockMutex : index:0
[3] lockMutex : index:0
[3] unlockMutex : index:0
[3] lockMutex : index:0
[3] unlockMutex : index:0
[2] unlockMutex : index:0
[2] lockMutex : index:0
[2] unlockMutex : index:0
[0] lockMutex : index:0
[0] unlockMutex : index:0
[0] lockMutex : index:0
[0] unlockMutex : index:0
[2] lockMutex : index:0
[2] unlockMutex : index:0
[2] lockMutex : index:0
[2] unlockMutex : index:0
[2] lockMutex : index:0
[2] createThread : index:0
[2] unlockMutex : index:0
lockMutex : index:[2] 0
[2] unlockMutex : index:0
[0] lockMutex : index:0
[0] unlockMutex : index:0
[0] lockMutex : index:0
[0] unlockMutex : index:0
[0] lockMutex : index:0
[0] createThread : index:0
[0] unlockMutex : index:0
lockMutex : index:[0] 0
[0] unlockMutex : index:0
mkDir
[0] bool Foam::mkDir(const Foam::fileName&, mode_t) : pathName:"/home/mattijs/OpenFOAM/mattijs-extensions/doc/Notes/GlobalFile_UGM2017/pitzDaily/processors/20" mode:511
ExecutionTime = 0.55 s  ClockTime = 1 s

[1] lockMutex : index:0
[1] unlockMutex : index:0
[1] lockMutex : index:0
[1] unlockMutex : index:0
[1] lockMutex : index:0
[1] createThread : index:0
[0] Foam::fileName::Type Foam::type(const Foam::fileName&, bool) : name:"/home/mattijs/OpenFOAM/mattijs-extensions/doc/Notes/GlobalFile_UGM2017/pitzDaily/processors/20/epsilon.gz"
mode
[0] mode_t Foam::mode(const Foam::fileName&, bool) : name:"/home/mattijs/OpenFOAM/mattijs-extensions/doc/Notes/GlobalFile_UGM2017/pitzDaily/processors/20/epsilon.gz"
[0] Foam::fileName::Type Foam::type(const Foam::fileName&, bool) : name:"/home/mattijs/OpenFOAM/mattijs-extensions/doc/Notes/GlobalFile_UGM2017/pitzDaily/processors/20/epsilon"
mode
[0] mode_t Foam::mode(const Foam::fileName&, bool) : name:"/home/mattijs/OpenFOAM/mattijs-extensions/doc/Notes/GlobalFile_UGM2017/pitzDaily/processors/20/epsilon"
ofstream
[3] lockMutex : index:0
[3] unlockMutex : index:0
[3] lockMutex : index:0
[3] unlockMutex : index:0
[3] lockMutex : index:0
[3] createThread : index:0
[1] unlockMutex : index:0
[1] lockMutex : index:0
[3] unlockMutex : index:0
[1] unlockMutex : index:0
End
[3] lockMutex : index:0
[3] unlockMutex : index:0

[1] lockMutex : index:0
[1] unlockMutex : index:0
[1] lockMutex : index:0
[1] unlockMutex : index:0
[2] lockMutex : index:0
[2] unlockMutex : index:0
[2] lockMutex : index:0
[2] unlockMutex : index:0
[3] lockMutex : index:0
[3] unlockMutex : index:0
[3] lockMutex : index:0
[3] unlockMutex : index:0
[0] lockMutex : index:0
[0] unlockMutex : index:0
[0] lockMutex : index:0
[0] unlockMutex : index:0
[0] freeThread : index:0
[0] freeMutex : index:0
[2] freeThread : index:0
[2] freeMutex : index:0
[1] freeThread : index:0
[1] freeMutex : index:0
Finalising parallel run
[3] freeThread : index:0
[3] freeMutex : index:0
